REMARK  Name = ../refined-set-2016/2w8y/2w8y_pocket.pdb
REMARK  260 active torsions:
REMARK  status: ('A' for Active; 'I' for Inactive)
REMARK    1  A    between atoms: _1  and  _3
REMARK    2  A    between atoms: _3  and  _4
REMARK    3  A    between atoms: _3  and  _6
REMARK    4  A    between atoms: _6  and  _7
REMARK    5  A    between atoms: _10  and  _12
REMARK    6  A    between atoms: _12  and  _13
REMARK    7  A    between atoms: _16  and  _18
REMARK    8  A    between atoms: _18  and  _19
REMARK    9  A    between atoms: _18  and  _21
REMARK   10  A    between atoms: _21  and  _22
REMARK   11  A    between atoms: _24  and  _26
REMARK   12  A    between atoms: _26  and  _27
REMARK   13  A    between atoms: _26  and  _29
REMARK   14  A    between atoms: _29  and  _30
REMARK   15  A    between atoms: _33  and  _35
REMARK   16  A    between atoms: _35  and  _36
REMARK   17  A    between atoms: _35  and  _38
REMARK   18  A    between atoms: _38  and  _39
REMARK   19  A    between atoms: _42  and  _44
REMARK   20  A    between atoms: _44  and  _45
REMARK   21  A    between atoms: _44  and  _47
REMARK   22  A    between atoms: _47  and  _48
REMARK   23  A    between atoms: _51  and  _53
REMARK   24  A    between atoms: _53  and  _54
REMARK   25  A    between atoms: _53  and  _56
REMARK   26  A    between atoms: _56  and  _57
REMARK   27  A    between atoms: _59  and  _61
REMARK   28  A    between atoms: _61  and  _62
REMARK   29  A    between atoms: _61  and  _64
REMARK   30  A    between atoms: _64  and  _65
REMARK   31  A    between atoms: _68  and  _70
REMARK   32  A    between atoms: _70  and  _71
REMARK   33  A    between atoms: _70  and  _73
REMARK   34  A    between atoms: _73  and  _74
REMARK   35  A    between atoms: _79  and  _81
REMARK   36  A    between atoms: _81  and  _82
REMARK   37  A    between atoms: _81  and  _84
REMARK   38  A    between atoms: _84  and  _85
REMARK   39  A    between atoms: _85  and  _86
REMARK   40  A    between atoms: _91  and  _93
REMARK   41  A    between atoms: _93  and  _94
REMARK   42  A    between atoms: _93  and  _96
REMARK   43  A    between atoms: _96  and  _97
REMARK   44  A    between atoms: _100  and  _102
REMARK   45  A    between atoms: _102  and  _103
REMARK   46  A    between atoms: _105  and  _107
REMARK   47  A    between atoms: _107  and  _108
REMARK   48  A    between atoms: _107  and  _110
REMARK   49  A    between atoms: _110  and  _111
REMARK   50  A    between atoms: _111  and  _112
REMARK   51  A    between atoms: _115  and  _117
REMARK   52  A    between atoms: _117  and  _118
REMARK   53  A    between atoms: _117  and  _120
REMARK   54  A    between atoms: _120  and  _121
REMARK   55  A    between atoms: _121  and  _122
REMARK   56  A    between atoms: _122  and  _123
REMARK   57  A    between atoms: _132  and  _134
REMARK   58  A    between atoms: _134  and  _135
REMARK   59  A    between atoms: _134  and  _137
REMARK   60  A    between atoms: _137  and  _138
REMARK   61  A    between atoms: _138  and  _139
REMARK   62  A    between atoms: _144  and  _146
REMARK   63  A    between atoms: _146  and  _147
REMARK   64  A    between atoms: _146  and  _149
REMARK   65  A    between atoms: _149  and  _150
REMARK   66  A    between atoms: _153  and  _155
REMARK   67  A    between atoms: _155  and  _156
REMARK   68  A    between atoms: _155  and  _158
REMARK   69  A    between atoms: _158  and  _159
REMARK   70  A    between atoms: _162  and  _164
REMARK   71  A    between atoms: _164  and  _165
REMARK   72  A    between atoms: _164  and  _167
REMARK   73  A    between atoms: _167  and  _168
REMARK   74  A    between atoms: _178  and  _180
REMARK   75  A    between atoms: _180  and  _181
REMARK   76  A    between atoms: _180  and  _183
REMARK   77  A    between atoms: _183  and  _184
REMARK   78  A    between atoms: _184  and  _185
REMARK   79  A    between atoms: _187  and  _189
REMARK   80  A    between atoms: _189  and  _190
REMARK   81  A    between atoms: _189  and  _192
REMARK   82  A    between atoms: _192  and  _193
REMARK   83  A    between atoms: _195  and  _197
REMARK   84  A    between atoms: _197  and  _198
REMARK   85  A    between atoms: _197  and  _200
REMARK   86  A    between atoms: _200  and  _201
REMARK   87  A    between atoms: _204  and  _206
REMARK   88  A    between atoms: _206  and  _207
REMARK   89  A    between atoms: _206  and  _209
REMARK   90  A    between atoms: _209  and  _210
REMARK   91  A    between atoms: _210  and  _211
REMARK   92  A    between atoms: _213  and  _215
REMARK   93  A    between atoms: _215  and  _216
REMARK   94  A    between atoms: _215  and  _218
REMARK   95  A    between atoms: _221  and  _223
REMARK   96  A    between atoms: _223  and  _224
REMARK   97  A    between atoms: _223  and  _226
REMARK   98  A    between atoms: _226  and  _227
REMARK   99  A    between atoms: _233  and  _235
REMARK  100  A    between atoms: _235  and  _236
REMARK  101  A    between atoms: _238  and  _240
REMARK  102  A    between atoms: _240  and  _241
REMARK  103  A    between atoms: _240  and  _243
REMARK  104  A    between atoms: _243  and  _244
REMARK  105  A    between atoms: _247  and  _249
REMARK  106  A    between atoms: _249  and  _250
REMARK  107  A    between atoms: _252  and  _254
REMARK  108  A    between atoms: _254  and  _255
REMARK  109  A    between atoms: _254  and  _257
REMARK  110  A    between atoms: _257  and  _258
REMARK  111  A    between atoms: _258  and  _259
REMARK  112  A    between atoms: _259  and  _260
REMARK  113  A    between atoms: _269  and  _271
REMARK  114  A    between atoms: _271  and  _272
REMARK  115  A    between atoms: _271  and  _274
REMARK  116  A    between atoms: _274  and  _275
REMARK  117  A    between atoms: _277  and  _279
REMARK  118  A    between atoms: _279  and  _280
REMARK  119  A    between atoms: _279  and  _282
REMARK  120  A    between atoms: _282  and  _283
REMARK  121  A    between atoms: _288  and  _289
REMARK  122  A    between atoms: _291  and  _293
REMARK  123  A    between atoms: _293  and  _294
REMARK  124  A    between atoms: _293  and  _296
REMARK  125  A    between atoms: _296  and  _297
REMARK  126  A    between atoms: _303  and  _305
REMARK  127  A    between atoms: _305  and  _306
REMARK  128  A    between atoms: _309  and  _311
REMARK  129  A    between atoms: _311  and  _312
REMARK  130  A    between atoms: _311  and  _314
REMARK  131  A    between atoms: _314  and  _315
REMARK  132  A    between atoms: _318  and  _320
REMARK  133  A    between atoms: _320  and  _321
REMARK  134  A    between atoms: _320  and  _323
REMARK  135  A    between atoms: _323  and  _324
REMARK  136  A    between atoms: _327  and  _329
REMARK  137  A    between atoms: _329  and  _330
REMARK  138  A    between atoms: _329  and  _332
REMARK  139  A    between atoms: _332  and  _333
REMARK  140  A    between atoms: _335  and  _337
REMARK  141  A    between atoms: _337  and  _338
REMARK  142  A    between atoms: _337  and  _340
REMARK  143  A    between atoms: _340  and  _341
REMARK  144  A    between atoms: _343  and  _345
REMARK  145  A    between atoms: _345  and  _346
REMARK  146  A    between atoms: _345  and  _348
REMARK  147  A    between atoms: _348  and  _349
REMARK  148  A    between atoms: _355  and  _357
REMARK  149  A    between atoms: _357  and  _358
REMARK  150  A    between atoms: _357  and  _360
REMARK  151  A    between atoms: _360  and  _361
REMARK  152  A    between atoms: _366  and  _367
REMARK  153  A    between atoms: _369  and  _371
REMARK  154  A    between atoms: _371  and  _372
REMARK  155  A    between atoms: _371  and  _374
REMARK  156  A    between atoms: _374  and  _375
REMARK  157  A    between atoms: _378  and  _380
REMARK  158  A    between atoms: _380  and  _381
REMARK  159  A    between atoms: _380  and  _383
REMARK  160  A    between atoms: _385  and  _387
REMARK  161  A    between atoms: _387  and  _388
REMARK  162  A    between atoms: _387  and  _390
REMARK  163  A    between atoms: _390  and  _391
REMARK  164  A    between atoms: _391  and  _392
REMARK  165  A    between atoms: _394  and  _396
REMARK  166  A    between atoms: _396  and  _397
REMARK  167  A    between atoms: _396  and  _399
REMARK  168  A    between atoms: _399  and  _400
REMARK  169  A    between atoms: _403  and  _405
REMARK  170  A    between atoms: _405  and  _406
REMARK  171  A    between atoms: _405  and  _408
REMARK  172  A    between atoms: _411  and  _413
REMARK  173  A    between atoms: _413  and  _414
REMARK  174  A    between atoms: _413  and  _416
REMARK  175  A    between atoms: _416  and  _417
REMARK  176  A    between atoms: _417  and  _418
REMARK  177  A    between atoms: _423  and  _425
REMARK  178  A    between atoms: _425  and  _426
REMARK  179  A    between atoms: _425  and  _428
REMARK  180  A    between atoms: _428  and  _429
REMARK  181  A    between atoms: _432  and  _434
REMARK  182  A    between atoms: _434  and  _435
REMARK  183  A    between atoms: _434  and  _437
REMARK  184  A    between atoms: _437  and  _438
REMARK  185  A    between atoms: _443  and  _445
REMARK  186  A    between atoms: _445  and  _446
REMARK  187  A    between atoms: _445  and  _448
REMARK  188  A    between atoms: _448  and  _449
REMARK  189  A    between atoms: _452  and  _454
REMARK  190  A    between atoms: _454  and  _455
REMARK  191  A    between atoms: _454  and  _457
REMARK  192  A    between atoms: _457  and  _458
REMARK  193  A    between atoms: _463  and  _464
REMARK  194  A    between atoms: _466  and  _468
REMARK  195  A    between atoms: _468  and  _469
REMARK  196  A    between atoms: _468  and  _471
REMARK  197  A    between atoms: _473  and  _475
REMARK  198  A    between atoms: _475  and  _476
REMARK  199  A    between atoms: _475  and  _478
REMARK  200  A    between atoms: _478  and  _479
REMARK  201  A    between atoms: _482  and  _484
REMARK  202  A    between atoms: _484  and  _485
REMARK  203  A    between atoms: _484  and  _487
REMARK  204  A    between atoms: _487  and  _488
REMARK  205  A    between atoms: _493  and  _495
REMARK  206  A    between atoms: _495  and  _496
REMARK  207  A    between atoms: _495  and  _498
REMARK  208  A    between atoms: _498  and  _499
REMARK  209  A    between atoms: _502  and  _504
REMARK  210  A    between atoms: _504  and  _505
REMARK  211  A    between atoms: _504  and  _507
REMARK  212  A    between atoms: _507  and  _508
REMARK  213  A    between atoms: _514  and  _516
REMARK  214  A    between atoms: _516  and  _517
REMARK  215  A    between atoms: _516  and  _519
REMARK  216  A    between atoms: _522  and  _524
REMARK  217  A    between atoms: _524  and  _525
REMARK  218  A    between atoms: _524  and  _527
REMARK  219  A    between atoms: _527  and  _528
REMARK  220  A    between atoms: _528  and  _529
REMARK  221  A    between atoms: _532  and  _534
REMARK  222  A    between atoms: _534  and  _535
REMARK  223  A    between atoms: _534  and  _537
REMARK  224  A    between atoms: _537  and  _538
REMARK  225  A    between atoms: _545  and  _546
REMARK  226  A    between atoms: _551  and  _553
REMARK  227  A    between atoms: _553  and  _554
REMARK  228  A    between atoms: _553  and  _556
REMARK  229  A    between atoms: _556  and  _557
REMARK  230  A    between atoms: _557  and  _558
REMARK  231  A    between atoms: _561  and  _563
REMARK  232  A    between atoms: _563  and  _564
REMARK  233  A    between atoms: _563  and  _566
REMARK  234  A    between atoms: _566  and  _567
REMARK  235  A    between atoms: _567  and  _568
REMARK  236  A    between atoms: _570  and  _572
REMARK  237  A    between atoms: _572  and  _573
REMARK  238  A    between atoms: _572  and  _575
REMARK  239  A    between atoms: _575  and  _576
REMARK  240  A    between atoms: _576  and  _577
REMARK  241  A    between atoms: _579  and  _581
REMARK  242  A    between atoms: _581  and  _582
REMARK  243  A    between atoms: _581  and  _584
REMARK  244  A    between atoms: _584  and  _585
REMARK  245  A    between atoms: _587  and  _589
REMARK  246  A    between atoms: _589  and  _590
REMARK  247  A    between atoms: _589  and  _592
REMARK  248  A    between atoms: _592  and  _593
REMARK  249  A    between atoms: _593  and  _594
REMARK  250  A    between atoms: _597  and  _599
REMARK  251  A    between atoms: _599  and  _600
REMARK  252  A    between atoms: _599  and  _602
REMARK  253  A    between atoms: _605  and  _607
REMARK  254  A    between atoms: _607  and  _608
REMARK  255  A    between atoms: _607  and  _610
REMARK  256  A    between atoms: _610  and  _611
REMARK  257  A    between atoms: _614  and  _616
REMARK  258  A    between atoms: _616  and  _617
REMARK  259  A    between atoms: _616  and  _619
REMARK  260  A    between atoms: _619  and  _620
REMARK                            x       y       z     vdW  Elec       q    Type
REMARK                         _______ _______ _______ _____ _____    ______ ____
ROOT
ATOM      1  CA  ILE A   1      10.278  10.886  -4.366  0.00  0.00    +0.133 C 
ENDROOT
BRANCH   1   2
ATOM      2  N   ILE A   1      11.571  11.073  -5.043  0.00  0.00    -0.239 NA
ATOM      3  H   ILE A   1      12.446  10.973  -4.489  0.00  0.00    +0.142 HD
ENDBRANCH   1   2
BRANCH   1   4
ATOM      4  C   ILE A   1      10.108  11.874  -3.213  0.00  0.00    +0.224 C 
ATOM      5  O   ILE A   1      10.968  11.965  -2.345  0.00  0.00    -0.287 OA
ENDBRANCH   1   4
BRANCH   1   6
ATOM      6  CB  ILE A   1      10.117   9.462  -3.826  0.00  0.00    +0.023 C 
ATOM      7  CG2 ILE A   1       8.833   9.334  -3.014  0.00  0.00    +0.002 C 
BRANCH   6   8
ATOM      8  CG1 ILE A   1      10.093   8.465  -4.988  0.00  0.00    +0.002 C 
ATOM      9  CD1 ILE A   1      10.173   7.024  -4.553  0.00  0.00    +0.000 C 
ENDBRANCH   6   8
ENDBRANCH   1   6
TORSDOF 4
REMARK  Name = ../refined-set-2016/2w8y/2w8y_pocket.pdb
REMARK  260 active torsions:
REMARK  status: ('A' for Active; 'I' for Inactive)
REMARK    1  A    between atoms: _1  and  _3
REMARK    2  A    between atoms: _3  and  _4
REMARK    3  A    between atoms: _3  and  _6
REMARK    4  A    between atoms: _6  and  _7
REMARK    5  A    between atoms: _10  and  _12
REMARK    6  A    between atoms: _12  and  _13
REMARK    7  A    between atoms: _16  and  _18
REMARK    8  A    between atoms: _18  and  _19
REMARK    9  A    between atoms: _18  and  _21
REMARK   10  A    between atoms: _21  and  _22
REMARK   11  A    between atoms: _24  and  _26
REMARK   12  A    between atoms: _26  and  _27
REMARK   13  A    between atoms: _26  and  _29
REMARK   14  A    between atoms: _29  and  _30
REMARK   15  A    between atoms: _33  and  _35
REMARK   16  A    between atoms: _35  and  _36
REMARK   17  A    between atoms: _35  and  _38
REMARK   18  A    between atoms: _38  and  _39
REMARK   19  A    between atoms: _42  and  _44
REMARK   20  A    between atoms: _44  and  _45
REMARK   21  A    between atoms: _44  and  _47
REMARK   22  A    between atoms: _47  and  _48
REMARK   23  A    between atoms: _51  and  _53
REMARK   24  A    between atoms: _53  and  _54
REMARK   25  A    between atoms: _53  and  _56
REMARK   26  A    between atoms: _56  and  _57
REMARK   27  A    between atoms: _59  and  _61
REMARK   28  A    between atoms: _61  and  _62
REMARK   29  A    between atoms: _61  and  _64
REMARK   30  A    between atoms: _64  and  _65
REMARK   31  A    between atoms: _68  and  _70
REMARK   32  A    between atoms: _70  and  _71
REMARK   33  A    between atoms: _70  and  _73
REMARK   34  A    between atoms: _73  and  _74
REMARK   35  A    between atoms: _79  and  _81
REMARK   36  A    between atoms: _81  and  _82
REMARK   37  A    between atoms: _81  and  _84
REMARK   38  A    between atoms: _84  and  _85
REMARK   39  A    between atoms: _85  and  _86
REMARK   40  A    between atoms: _91  and  _93
REMARK   41  A    between atoms: _93  and  _94
REMARK   42  A    between atoms: _93  and  _96
REMARK   43  A    between atoms: _96  and  _97
REMARK   44  A    between atoms: _100  and  _102
REMARK   45  A    between atoms: _102  and  _103
REMARK   46  A    between atoms: _105  and  _107
REMARK   47  A    between atoms: _107  and  _108
REMARK   48  A    between atoms: _107  and  _110
REMARK   49  A    between atoms: _110  and  _111
REMARK   50  A    between atoms: _111  and  _112
REMARK   51  A    between atoms: _115  and  _117
REMARK   52  A    between atoms: _117  and  _118
REMARK   53  A    between atoms: _117  and  _120
REMARK   54  A    between atoms: _120  and  _121
REMARK   55  A    between atoms: _121  and  _122
REMARK   56  A    between atoms: _122  and  _123
REMARK   57  A    between atoms: _132  and  _134
REMARK   58  A    between atoms: _134  and  _135
REMARK   59  A    between atoms: _134  and  _137
REMARK   60  A    between atoms: _137  and  _138
REMARK   61  A    between atoms: _138  and  _139
REMARK   62  A    between atoms: _144  and  _146
REMARK   63  A    between atoms: _146  and  _147
REMARK   64  A    between atoms: _146  and  _149
REMARK   65  A    between atoms: _149  and  _150
REMARK   66  A    between atoms: _153  and  _155
REMARK   67  A    between atoms: _155  and  _156
REMARK   68  A    between atoms: _155  and  _158
REMARK   69  A    between atoms: _158  and  _159
REMARK   70  A    between atoms: _162  and  _164
REMARK   71  A    between atoms: _164  and  _165
REMARK   72  A    between atoms: _164  and  _167
REMARK   73  A    between atoms: _167  and  _168
REMARK   74  A    between atoms: _178  and  _180
REMARK   75  A    between atoms: _180  and  _181
REMARK   76  A    between atoms: _180  and  _183
REMARK   77  A    between atoms: _183  and  _184
REMARK   78  A    between atoms: _184  and  _185
REMARK   79  A    between atoms: _187  and  _189
REMARK   80  A    between atoms: _189  and  _190
REMARK   81  A    between atoms: _189  and  _192
REMARK   82  A    between atoms: _192  and  _193
REMARK   83  A    between atoms: _195  and  _197
REMARK   84  A    between atoms: _197  and  _198
REMARK   85  A    between atoms: _197  and  _200
REMARK   86  A    between atoms: _200  and  _201
REMARK   87  A    between atoms: _204  and  _206
REMARK   88  A    between atoms: _206  and  _207
REMARK   89  A    between atoms: _206  and  _209
REMARK   90  A    between atoms: _209  and  _210
REMARK   91  A    between atoms: _210  and  _211
REMARK   92  A    between atoms: _213  and  _215
REMARK   93  A    between atoms: _215  and  _216
REMARK   94  A    between atoms: _215  and  _218
REMARK   95  A    between atoms: _221  and  _223
REMARK   96  A    between atoms: _223  and  _224
REMARK   97  A    between atoms: _223  and  _226
REMARK   98  A    between atoms: _226  and  _227
REMARK   99  A    between atoms: _233  and  _235
REMARK  100  A    between atoms: _235  and  _236
REMARK  101  A    between atoms: _238  and  _240
REMARK  102  A    between atoms: _240  and  _241
REMARK  103  A    between atoms: _240  and  _243
REMARK  104  A    between atoms: _243  and  _244
REMARK  105  A    between atoms: _247  and  _249
REMARK  106  A    between atoms: _249  and  _250
REMARK  107  A    between atoms: _252  and  _254
REMARK  108  A    between atoms: _254  and  _255
REMARK  109  A    between atoms: _254  and  _257
REMARK  110  A    between atoms: _257  and  _258
REMARK  111  A    between atoms: _258  and  _259
REMARK  112  A    between atoms: _259  and  _260
REMARK  113  A    between atoms: _269  and  _271
REMARK  114  A    between atoms: _271  and  _272
REMARK  115  A    between atoms: _271  and  _274
REMARK  116  A    between atoms: _274  and  _275
REMARK  117  A    between atoms: _277  and  _279
REMARK  118  A    between atoms: _279  and  _280
REMARK  119  A    between atoms: _279  and  _282
REMARK  120  A    between atoms: _282  and  _283
REMARK  121  A    between atoms: _288  and  _289
REMARK  122  A    between atoms: _291  and  _293
REMARK  123  A    between atoms: _293  and  _294
REMARK  124  A    between atoms: _293  and  _296
REMARK  125  A    between atoms: _296  and  _297
REMARK  126  A    between atoms: _303  and  _305
REMARK  127  A    between atoms: _305  and  _306
REMARK  128  A    between atoms: _309  and  _311
REMARK  129  A    between atoms: _311  and  _312
REMARK  130  A    between atoms: _311  and  _314
REMARK  131  A    between atoms: _314  and  _315
REMARK  132  A    between atoms: _318  and  _320
REMARK  133  A    between atoms: _320  and  _321
REMARK  134  A    between atoms: _320  and  _323
REMARK  135  A    between atoms: _323  and  _324
REMARK  136  A    between atoms: _327  and  _329
REMARK  137  A    between atoms: _329  and  _330
REMARK  138  A    between atoms: _329  and  _332
REMARK  139  A    between atoms: _332  and  _333
REMARK  140  A    between atoms: _335  and  _337
REMARK  141  A    between atoms: _337  and  _338
REMARK  142  A    between atoms: _337  and  _340
REMARK  143  A    between atoms: _340  and  _341
REMARK  144  A    between atoms: _343  and  _345
REMARK  145  A    between atoms: _345  and  _346
REMARK  146  A    between atoms: _345  and  _348
REMARK  147  A    between atoms: _348  and  _349
REMARK  148  A    between atoms: _355  and  _357
REMARK  149  A    between atoms: _357  and  _358
REMARK  150  A    between atoms: _357  and  _360
REMARK  151  A    between atoms: _360  and  _361
REMARK  152  A    between atoms: _366  and  _367
REMARK  153  A    between atoms: _369  and  _371
REMARK  154  A    between atoms: _371  and  _372
REMARK  155  A    between atoms: _371  and  _374
REMARK  156  A    between atoms: _374  and  _375
REMARK  157  A    between atoms: _378  and  _380
REMARK  158  A    between atoms: _380  and  _381
REMARK  159  A    between atoms: _380  and  _383
REMARK  160  A    between atoms: _385  and  _387
REMARK  161  A    between atoms: _387  and  _388
REMARK  162  A    between atoms: _387  and  _390
REMARK  163  A    between atoms: _390  and  _391
REMARK  164  A    between atoms: _391  and  _392
REMARK  165  A    between atoms: _394  and  _396
REMARK  166  A    between atoms: _396  and  _397
REMARK  167  A    between atoms: _396  and  _399
REMARK  168  A    between atoms: _399  and  _400
REMARK  169  A    between atoms: _403  and  _405
REMARK  170  A    between atoms: _405  and  _406
REMARK  171  A    between atoms: _405  and  _408
REMARK  172  A    between atoms: _411  and  _413
REMARK  173  A    between atoms: _413  and  _414
REMARK  174  A    between atoms: _413  and  _416
REMARK  175  A    between atoms: _416  and  _417
REMARK  176  A    between atoms: _417  and  _418
REMARK  177  A    between atoms: _423  and  _425
REMARK  178  A    between atoms: _425  and  _426
REMARK  179  A    between atoms: _425  and  _428
REMARK  180  A    between atoms: _428  and  _429
REMARK  181  A    between atoms: _432  and  _434
REMARK  182  A    between atoms: _434  and  _435
REMARK  183  A    between atoms: _434  and  _437
REMARK  184  A    between atoms: _437  and  _438
REMARK  185  A    between atoms: _443  and  _445
REMARK  186  A    between atoms: _445  and  _446
REMARK  187  A    between atoms: _445  and  _448
REMARK  188  A    between atoms: _448  and  _449
REMARK  189  A    between atoms: _452  and  _454
REMARK  190  A    between atoms: _454  and  _455
REMARK  191  A    between atoms: _454  and  _457
REMARK  192  A    between atoms: _457  and  _458
REMARK  193  A    between atoms: _463  and  _464
REMARK  194  A    between atoms: _466  and  _468
REMARK  195  A    between atoms: _468  and  _469
REMARK  196  A    between atoms: _468  and  _471
REMARK  197  A    between atoms: _473  and  _475
REMARK  198  A    between atoms: _475  and  _476
REMARK  199  A    between atoms: _475  and  _478
REMARK  200  A    between atoms: _478  and  _479
REMARK  201  A    between atoms: _482  and  _484
REMARK  202  A    between atoms: _484  and  _485
REMARK  203  A    between atoms: _484  and  _487
REMARK  204  A    between atoms: _487  and  _488
REMARK  205  A    between atoms: _493  and  _495
REMARK  206  A    between atoms: _495  and  _496
REMARK  207  A    between atoms: _495  and  _498
REMARK  208  A    between atoms: _498  and  _499
REMARK  209  A    between atoms: _502  and  _504
REMARK  210  A    between atoms: _504  and  _505
REMARK  211  A    between atoms: _504  and  _507
REMARK  212  A    between atoms: _507  and  _508
REMARK  213  A    between atoms: _514  and  _516
REMARK  214  A    between atoms: _516  and  _517
REMARK  215  A    between atoms: _516  and  _519
REMARK  216  A    between atoms: _522  and  _524
REMARK  217  A    between atoms: _524  and  _525
REMARK  218  A    between atoms: _524  and  _527
REMARK  219  A    between atoms: _527  and  _528
REMARK  220  A    between atoms: _528  and  _529
REMARK  221  A    between atoms: _532  and  _534
REMARK  222  A    between atoms: _534  and  _535
REMARK  223  A    between atoms: _534  and  _537
REMARK  224  A    between atoms: _537  and  _538
REMARK  225  A    between atoms: _545  and  _546
REMARK  226  A    between atoms: _551  and  _553
REMARK  227  A    between atoms: _553  and  _554
REMARK  228  A    between atoms: _553  and  _556
REMARK  229  A    between atoms: _556  and  _557
REMARK  230  A    between atoms: _557  and  _558
REMARK  231  A    between atoms: _561  and  _563
REMARK  232  A    between atoms: _563  and  _564
REMARK  233  A    between atoms: _563  and  _566
REMARK  234  A    between atoms: _566  and  _567
REMARK  235  A    between atoms: _567  and  _568
REMARK  236  A    between atoms: _570  and  _572
REMARK  237  A    between atoms: _572  and  _573
REMARK  238  A    between atoms: _572  and  _575
REMARK  239  A    between atoms: _575  and  _576
REMARK  240  A    between atoms: _576  and  _577
REMARK  241  A    between atoms: _579  and  _581
REMARK  242  A    between atoms: _581  and  _582
REMARK  243  A    between atoms: _581  and  _584
REMARK  244  A    between atoms: _584  and  _585
REMARK  245  A    between atoms: _587  and  _589
REMARK  246  A    between atoms: _589  and  _590
REMARK  247  A    between atoms: _589  and  _592
REMARK  248  A    between atoms: _592  and  _593
REMARK  249  A    between atoms: _593  and  _594
REMARK  250  A    between atoms: _597  and  _599
REMARK  251  A    between atoms: _599  and  _600
REMARK  252  A    between atoms: _599  and  _602
REMARK  253  A    between atoms: _605  and  _607
REMARK  254  A    between atoms: _607  and  _608
REMARK  255  A    between atoms: _607  and  _610
REMARK  256  A    between atoms: _610  and  _611
REMARK  257  A    between atoms: _614  and  _616
REMARK  258  A    between atoms: _616  and  _617
REMARK  259  A    between atoms: _616  and  _619
REMARK  260  A    between atoms: _619  and  _620
REMARK                            x       y       z     vdW  Elec       q    Type
REMARK                         _______ _______ _______ _____ _____    ______ ____
ROOT
ATOM      1  CA  ALA A   1       7.270  13.189   1.323  0.00  0.00    +0.133 C 
ATOM      2  CB  ALA A   1       8.028  13.582   2.580  0.00  0.00    +0.027 C 
ENDROOT
BRANCH   1   3
ATOM      3  N   ALA A   1       8.019  13.592   0.139  0.00  0.00    -0.239 NA
ATOM      4  H   ALA A   1       8.707  14.367   0.223  0.00  0.00    +0.142 HD
ENDBRANCH   1   3
BRANCH   1   5
ATOM      5  C   ALA A   1       5.863  13.791   1.359  0.00  0.00    +0.224 C 
ATOM      6  O   ALA A   1       4.961  13.227   1.982  0.00  0.00    -0.287 OA
ENDBRANCH   1   5
TORSDOF 2
REMARK  Name = ../refined-set-2016/2w8y/2w8y_pocket.pdb
REMARK  260 active torsions:
REMARK  status: ('A' for Active; 'I' for Inactive)
REMARK    1  A    between atoms: _1  and  _3
REMARK    2  A    between atoms: _3  and  _4
REMARK    3  A    between atoms: _3  and  _6
REMARK    4  A    between atoms: _6  and  _7
REMARK    5  A    between atoms: _10  and  _12
REMARK    6  A    between atoms: _12  and  _13
REMARK    7  A    between atoms: _16  and  _18
REMARK    8  A    between atoms: _18  and  _19
REMARK    9  A    between atoms: _18  and  _21
REMARK   10  A    between atoms: _21  and  _22
REMARK   11  A    between atoms: _24  and  _26
REMARK   12  A    between atoms: _26  and  _27
REMARK   13  A    between atoms: _26  and  _29
REMARK   14  A    between atoms: _29  and  _30
REMARK   15  A    between atoms: _33  and  _35
REMARK   16  A    between atoms: _35  and  _36
REMARK   17  A    between atoms: _35  and  _38
REMARK   18  A    between atoms: _38  and  _39
REMARK   19  A    between atoms: _42  and  _44
REMARK   20  A    between atoms: _44  and  _45
REMARK   21  A    between atoms: _44  and  _47
REMARK   22  A    between atoms: _47  and  _48
REMARK   23  A    between atoms: _51  and  _53
REMARK   24  A    between atoms: _53  and  _54
REMARK   25  A    between atoms: _53  and  _56
REMARK   26  A    between atoms: _56  and  _57
REMARK   27  A    between atoms: _59  and  _61
REMARK   28  A    between atoms: _61  and  _62
REMARK   29  A    between atoms: _61  and  _64
REMARK   30  A    between atoms: _64  and  _65
REMARK   31  A    between atoms: _68  and  _70
REMARK   32  A    between atoms: _70  and  _71
REMARK   33  A    between atoms: _70  and  _73
REMARK   34  A    between atoms: _73  and  _74
REMARK   35  A    between atoms: _79  and  _81
REMARK   36  A    between atoms: _81  and  _82
REMARK   37  A    between atoms: _81  and  _84
REMARK   38  A    between atoms: _84  and  _85
REMARK   39  A    between atoms: _85  and  _86
REMARK   40  A    between atoms: _91  and  _93
REMARK   41  A    between atoms: _93  and  _94
REMARK   42  A    between atoms: _93  and  _96
REMARK   43  A    between atoms: _96  and  _97
REMARK   44  A    between atoms: _100  and  _102
REMARK   45  A    between atoms: _102  and  _103
REMARK   46  A    between atoms: _105  and  _107
REMARK   47  A    between atoms: _107  and  _108
REMARK   48  A    between atoms: _107  and  _110
REMARK   49  A    between atoms: _110  and  _111
REMARK   50  A    between atoms: _111  and  _112
REMARK   51  A    between atoms: _115  and  _117
REMARK   52  A    between atoms: _117  and  _118
REMARK   53  A    between atoms: _117  and  _120
REMARK   54  A    between atoms: _120  and  _121
REMARK   55  A    between atoms: _121  and  _122
REMARK   56  A    between atoms: _122  and  _123
REMARK   57  A    between atoms: _132  and  _134
REMARK   58  A    between atoms: _134  and  _135
REMARK   59  A    between atoms: _134  and  _137
REMARK   60  A    between atoms: _137  and  _138
REMARK   61  A    between atoms: _138  and  _139
REMARK   62  A    between atoms: _144  and  _146
REMARK   63  A    between atoms: _146  and  _147
REMARK   64  A    between atoms: _146  and  _149
REMARK   65  A    between atoms: _149  and  _150
REMARK   66  A    between atoms: _153  and  _155
REMARK   67  A    between atoms: _155  and  _156
REMARK   68  A    between atoms: _155  and  _158
REMARK   69  A    between atoms: _158  and  _159
REMARK   70  A    between atoms: _162  and  _164
REMARK   71  A    between atoms: _164  and  _165
REMARK   72  A    between atoms: _164  and  _167
REMARK   73  A    between atoms: _167  and  _168
REMARK   74  A    between atoms: _178  and  _180
REMARK   75  A    between atoms: _180  and  _181
REMARK   76  A    between atoms: _180  and  _183
REMARK   77  A    between atoms: _183  and  _184
REMARK   78  A    between atoms: _184  and  _185
REMARK   79  A    between atoms: _187  and  _189
REMARK   80  A    between atoms: _189  and  _190
REMARK   81  A    between atoms: _189  and  _192
REMARK   82  A    between atoms: _192  and  _193
REMARK   83  A    between atoms: _195  and  _197
REMARK   84  A    between atoms: _197  and  _198
REMARK   85  A    between atoms: _197  and  _200
REMARK   86  A    between atoms: _200  and  _201
REMARK   87  A    between atoms: _204  and  _206
REMARK   88  A    between atoms: _206  and  _207
REMARK   89  A    between atoms: _206  and  _209
REMARK   90  A    between atoms: _209  and  _210
REMARK   91  A    between atoms: _210  and  _211
REMARK   92  A    between atoms: _213  and  _215
REMARK   93  A    between atoms: _215  and  _216
REMARK   94  A    between atoms: _215  and  _218
REMARK   95  A    between atoms: _221  and  _223
REMARK   96  A    between atoms: _223  and  _224
REMARK   97  A    between atoms: _223  and  _226
REMARK   98  A    between atoms: _226  and  _227
REMARK   99  A    between atoms: _233  and  _235
REMARK  100  A    between atoms: _235  and  _236
REMARK  101  A    between atoms: _238  and  _240
REMARK  102  A    between atoms: _240  and  _241
REMARK  103  A    between atoms: _240  and  _243
REMARK  104  A    between atoms: _243  and  _244
REMARK  105  A    between atoms: _247  and  _249
REMARK  106  A    between atoms: _249  and  _250
REMARK  107  A    between atoms: _252  and  _254
REMARK  108  A    between atoms: _254  and  _255
REMARK  109  A    between atoms: _254  and  _257
REMARK  110  A    between atoms: _257  and  _258
REMARK  111  A    between atoms: _258  and  _259
REMARK  112  A    between atoms: _259  and  _260
REMARK  113  A    between atoms: _269  and  _271
REMARK  114  A    between atoms: _271  and  _272
REMARK  115  A    between atoms: _271  and  _274
REMARK  116  A    between atoms: _274  and  _275
REMARK  117  A    between atoms: _277  and  _279
REMARK  118  A    between atoms: _279  and  _280
REMARK  119  A    between atoms: _279  and  _282
REMARK  120  A    between atoms: _282  and  _283
REMARK  121  A    between atoms: _288  and  _289
REMARK  122  A    between atoms: _291  and  _293
REMARK  123  A    between atoms: _293  and  _294
REMARK  124  A    between atoms: _293  and  _296
REMARK  125  A    between atoms: _296  and  _297
REMARK  126  A    between atoms: _303  and  _305
REMARK  127  A    between atoms: _305  and  _306
REMARK  128  A    between atoms: _309  and  _311
REMARK  129  A    between atoms: _311  and  _312
REMARK  130  A    between atoms: _311  and  _314
REMARK  131  A    between atoms: _314  and  _315
REMARK  132  A    between atoms: _318  and  _320
REMARK  133  A    between atoms: _320  and  _321
REMARK  134  A    between atoms: _320  and  _323
REMARK  135  A    between atoms: _323  and  _324
REMARK  136  A    between atoms: _327  and  _329
REMARK  137  A    between atoms: _329  and  _330
REMARK  138  A    between atoms: _329  and  _332
REMARK  139  A    between atoms: _332  and  _333
REMARK  140  A    between atoms: _335  and  _337
REMARK  141  A    between atoms: _337  and  _338
REMARK  142  A    between atoms: _337  and  _340
REMARK  143  A    between atoms: _340  and  _341
REMARK  144  A    between atoms: _343  and  _345
REMARK  145  A    between atoms: _345  and  _346
REMARK  146  A    between atoms: _345  and  _348
REMARK  147  A    between atoms: _348  and  _349
REMARK  148  A    between atoms: _355  and  _357
REMARK  149  A    between atoms: _357  and  _358
REMARK  150  A    between atoms: _357  and  _360
REMARK  151  A    between atoms: _360  and  _361
REMARK  152  A    between atoms: _366  and  _367
REMARK  153  A    between atoms: _369  and  _371
REMARK  154  A    between atoms: _371  and  _372
REMARK  155  A    between atoms: _371  and  _374
REMARK  156  A    between atoms: _374  and  _375
REMARK  157  A    between atoms: _378  and  _380
REMARK  158  A    between atoms: _380  and  _381
REMARK  159  A    between atoms: _380  and  _383
REMARK  160  A    between atoms: _385  and  _387
REMARK  161  A    between atoms: _387  and  _388
REMARK  162  A    between atoms: _387  and  _390
REMARK  163  A    between atoms: _390  and  _391
REMARK  164  A    between atoms: _391  and  _392
REMARK  165  A    between atoms: _394  and  _396
REMARK  166  A    between atoms: _396  and  _397
REMARK  167  A    between atoms: _396  and  _399
REMARK  168  A    between atoms: _399  and  _400
REMARK  169  A    between atoms: _403  and  _405
REMARK  170  A    between atoms: _405  and  _406
REMARK  171  A    between atoms: _405  and  _408
REMARK  172  A    between atoms: _411  and  _413
REMARK  173  A    between atoms: _413  and  _414
REMARK  174  A    between atoms: _413  and  _416
REMARK  175  A    between atoms: _416  and  _417
REMARK  176  A    between atoms: _417  and  _418
REMARK  177  A    between atoms: _423  and  _425
REMARK  178  A    between atoms: _425  and  _426
REMARK  179  A    between atoms: _425  and  _428
REMARK  180  A    between atoms: _428  and  _429
REMARK  181  A    between atoms: _432  and  _434
REMARK  182  A    between atoms: _434  and  _435
REMARK  183  A    between atoms: _434  and  _437
REMARK  184  A    between atoms: _437  and  _438
REMARK  185  A    between atoms: _443  and  _445
REMARK  186  A    between atoms: _445  and  _446
REMARK  187  A    between atoms: _445  and  _448
REMARK  188  A    between atoms: _448  and  _449
REMARK  189  A    between atoms: _452  and  _454
REMARK  190  A    between atoms: _454  and  _455
REMARK  191  A    between atoms: _454  and  _457
REMARK  192  A    between atoms: _457  and  _458
REMARK  193  A    between atoms: _463  and  _464
REMARK  194  A    between atoms: _466  and  _468
REMARK  195  A    between atoms: _468  and  _469
REMARK  196  A    between atoms: _468  and  _471
REMARK  197  A    between atoms: _473  and  _475
REMARK  198  A    between atoms: _475  and  _476
REMARK  199  A    between atoms: _475  and  _478
REMARK  200  A    between atoms: _478  and  _479
REMARK  201  A    between atoms: _482  and  _484
REMARK  202  A    between atoms: _484  and  _485
REMARK  203  A    between atoms: _484  and  _487
REMARK  204  A    between atoms: _487  and  _488
REMARK  205  A    between atoms: _493  and  _495
REMARK  206  A    between atoms: _495  and  _496
REMARK  207  A    between atoms: _495  and  _498
REMARK  208  A    between atoms: _498  and  _499
REMARK  209  A    between atoms: _502  and  _504
REMARK  210  A    between atoms: _504  and  _505
REMARK  211  A    between atoms: _504  and  _507
REMARK  212  A    between atoms: _507  and  _508
REMARK  213  A    between atoms: _514  and  _516
REMARK  214  A    between atoms: _516  and  _517
REMARK  215  A    between atoms: _516  and  _519
REMARK  216  A    between atoms: _522  and  _524
REMARK  217  A    between atoms: _524  and  _525
REMARK  218  A    between atoms: _524  and  _527
REMARK  219  A    between atoms: _527  and  _528
REMARK  220  A    between atoms: _528  and  _529
REMARK  221  A    between atoms: _532  and  _534
REMARK  222  A    between atoms: _534  and  _535
REMARK  223  A    between atoms: _534  and  _537
REMARK  224  A    between atoms: _537  and  _538
REMARK  225  A    between atoms: _545  and  _546
REMARK  226  A    between atoms: _551  and  _553
REMARK  227  A    between atoms: _553  and  _554
REMARK  228  A    between atoms: _553  and  _556
REMARK  229  A    between atoms: _556  and  _557
REMARK  230  A    between atoms: _557  and  _558
REMARK  231  A    between atoms: _561  and  _563
REMARK  232  A    between atoms: _563  and  _564
REMARK  233  A    between atoms: _563  and  _566
REMARK  234  A    between atoms: _566  and  _567
REMARK  235  A    between atoms: _567  and  _568
REMARK  236  A    between atoms: _570  and  _572
REMARK  237  A    between atoms: _572  and  _573
REMARK  238  A    between atoms: _572  and  _575
REMARK  239  A    between atoms: _575  and  _576
REMARK  240  A    between atoms: _576  and  _577
REMARK  241  A    between atoms: _579  and  _581
REMARK  242  A    between atoms: _581  and  _582
REMARK  243  A    between atoms: _581  and  _584
REMARK  244  A    between atoms: _584  and  _585
REMARK  245  A    between atoms: _587  and  _589
REMARK  246  A    between atoms: _589  and  _590
REMARK  247  A    between atoms: _589  and  _592
REMARK  248  A    between atoms: _592  and  _593
REMARK  249  A    between atoms: _593  and  _594
REMARK  250  A    between atoms: _597  and  _599
REMARK  251  A    between atoms: _599  and  _600
REMARK  252  A    between atoms: _599  and  _602
REMARK  253  A    between atoms: _605  and  _607
REMARK  254  A    between atoms: _607  and  _608
REMARK  255  A    between atoms: _607  and  _610
REMARK  256  A    between atoms: _610  and  _611
REMARK  257  A    between atoms: _614  and  _616
REMARK  258  A    between atoms: _616  and  _617
REMARK  259  A    between atoms: _616  and  _619
REMARK  260  A    between atoms: _619  and  _620
REMARK                            x       y       z     vdW  Elec       q    Type
REMARK                         _______ _______ _______ _____ _____    ______ ____
ROOT
ATOM      1  CA  SER A   1       6.504  14.141  16.821  0.00  0.00    +0.163 C 
ENDROOT
BRANCH   1   2
ATOM      2  N   SER A   1       6.319  15.582  16.845  0.00  0.00    -0.237 NA
ATOM      3  H   SER A   1       6.220  16.064  17.761  0.00  0.00    +0.142 HD
ENDBRANCH   1   2
BRANCH   1   4
ATOM      4  C   SER A   1       5.533  13.476  15.833  0.00  0.00    +0.227 C 
ATOM      5  O   SER A   1       5.947  12.667  15.000  0.00  0.00    -0.287 OA
ENDBRANCH   1   4
BRANCH   1   6
ATOM      6  CB  SER A   1       6.315  13.572  18.227  0.00  0.00    +0.162 C 
BRANCH   6   7
ATOM      7  OG  SER A   1       6.332  12.159  18.211  0.00  0.00    -0.380 OA
ATOM      8  H   SER A   1       6.208  11.818  19.132  0.00  0.00    +0.211 HD
ENDBRANCH   6   7
ENDBRANCH   1   6
TORSDOF 4
REMARK  Name = ../refined-set-2016/2w8y/2w8y_pocket.pdb
REMARK  260 active torsions:
REMARK  status: ('A' for Active; 'I' for Inactive)
REMARK    1  A    between atoms: _1  and  _3
REMARK    2  A    between atoms: _3  and  _4
REMARK    3  A    between atoms: _3  and  _6
REMARK    4  A    between atoms: _6  and  _7
REMARK    5  A    between atoms: _10  and  _12
REMARK    6  A    between atoms: _12  and  _13
REMARK    7  A    between atoms: _16  and  _18
REMARK    8  A    between atoms: _18  and  _19
REMARK    9  A    between atoms: _18  and  _21
REMARK   10  A    between atoms: _21  and  _22
REMARK   11  A    between atoms: _24  and  _26
REMARK   12  A    between atoms: _26  and  _27
REMARK   13  A    between atoms: _26  and  _29
REMARK   14  A    between atoms: _29  and  _30
REMARK   15  A    between atoms: _33  and  _35
REMARK   16  A    between atoms: _35  and  _36
REMARK   17  A    between atoms: _35  and  _38
REMARK   18  A    between atoms: _38  and  _39
REMARK   19  A    between atoms: _42  and  _44
REMARK   20  A    between atoms: _44  and  _45
REMARK   21  A    between atoms: _44  and  _47
REMARK   22  A    between atoms: _47  and  _48
REMARK   23  A    between atoms: _51  and  _53
REMARK   24  A    between atoms: _53  and  _54
REMARK   25  A    between atoms: _53  and  _56
REMARK   26  A    between atoms: _56  and  _57
REMARK   27  A    between atoms: _59  and  _61
REMARK   28  A    between atoms: _61  and  _62
REMARK   29  A    between atoms: _61  and  _64
REMARK   30  A    between atoms: _64  and  _65
REMARK   31  A    between atoms: _68  and  _70
REMARK   32  A    between atoms: _70  and  _71
REMARK   33  A    between atoms: _70  and  _73
REMARK   34  A    between atoms: _73  and  _74
REMARK   35  A    between atoms: _79  and  _81
REMARK   36  A    between atoms: _81  and  _82
REMARK   37  A    between atoms: _81  and  _84
REMARK   38  A    between atoms: _84  and  _85
REMARK   39  A    between atoms: _85  and  _86
REMARK   40  A    between atoms: _91  and  _93
REMARK   41  A    between atoms: _93  and  _94
REMARK   42  A    between atoms: _93  and  _96
REMARK   43  A    between atoms: _96  and  _97
REMARK   44  A    between atoms: _100  and  _102
REMARK   45  A    between atoms: _102  and  _103
REMARK   46  A    between atoms: _105  and  _107
REMARK   47  A    between atoms: _107  and  _108
REMARK   48  A    between atoms: _107  and  _110
REMARK   49  A    between atoms: _110  and  _111
REMARK   50  A    between atoms: _111  and  _112
REMARK   51  A    between atoms: _115  and  _117
REMARK   52  A    between atoms: _117  and  _118
REMARK   53  A    between atoms: _117  and  _120
REMARK   54  A    between atoms: _120  and  _121
REMARK   55  A    between atoms: _121  and  _122
REMARK   56  A    between atoms: _122  and  _123
REMARK   57  A    between atoms: _132  and  _134
REMARK   58  A    between atoms: _134  and  _135
REMARK   59  A    between atoms: _134  and  _137
REMARK   60  A    between atoms: _137  and  _138
REMARK   61  A    between atoms: _138  and  _139
REMARK   62  A    between atoms: _144  and  _146
REMARK   63  A    between atoms: _146  and  _147
REMARK   64  A    between atoms: _146  and  _149
REMARK   65  A    between atoms: _149  and  _150
REMARK   66  A    between atoms: _153  and  _155
REMARK   67  A    between atoms: _155  and  _156
REMARK   68  A    between atoms: _155  and  _158
REMARK   69  A    between atoms: _158  and  _159
REMARK   70  A    between atoms: _162  and  _164
REMARK   71  A    between atoms: _164  and  _165
REMARK   72  A    between atoms: _164  and  _167
REMARK   73  A    between atoms: _167  and  _168
REMARK   74  A    between atoms: _178  and  _180
REMARK   75  A    between atoms: _180  and  _181
REMARK   76  A    between atoms: _180  and  _183
REMARK   77  A    between atoms: _183  and  _184
REMARK   78  A    between atoms: _184  and  _185
REMARK   79  A    between atoms: _187  and  _189
REMARK   80  A    between atoms: _189  and  _190
REMARK   81  A    between atoms: _189  and  _192
REMARK   82  A    between atoms: _192  and  _193
REMARK   83  A    between atoms: _195  and  _197
REMARK   84  A    between atoms: _197  and  _198
REMARK   85  A    between atoms: _197  and  _200
REMARK   86  A    between atoms: _200  and  _201
REMARK   87  A    between atoms: _204  and  _206
REMARK   88  A    between atoms: _206  and  _207
REMARK   89  A    between atoms: _206  and  _209
REMARK   90  A    between atoms: _209  and  _210
REMARK   91  A    between atoms: _210  and  _211
REMARK   92  A    between atoms: _213  and  _215
REMARK   93  A    between atoms: _215  and  _216
REMARK   94  A    between atoms: _215  and  _218
REMARK   95  A    between atoms: _221  and  _223
REMARK   96  A    between atoms: _223  and  _224
REMARK   97  A    between atoms: _223  and  _226
REMARK   98  A    between atoms: _226  and  _227
REMARK   99  A    between atoms: _233  and  _235
REMARK  100  A    between atoms: _235  and  _236
REMARK  101  A    between atoms: _238  and  _240
REMARK  102  A    between atoms: _240  and  _241
REMARK  103  A    between atoms: _240  and  _243
REMARK  104  A    between atoms: _243  and  _244
REMARK  105  A    between atoms: _247  and  _249
REMARK  106  A    between atoms: _249  and  _250
REMARK  107  A    between atoms: _252  and  _254
REMARK  108  A    between atoms: _254  and  _255
REMARK  109  A    between atoms: _254  and  _257
REMARK  110  A    between atoms: _257  and  _258
REMARK  111  A    between atoms: _258  and  _259
REMARK  112  A    between atoms: _259  and  _260
REMARK  113  A    between atoms: _269  and  _271
REMARK  114  A    between atoms: _271  and  _272
REMARK  115  A    between atoms: _271  and  _274
REMARK  116  A    between atoms: _274  and  _275
REMARK  117  A    between atoms: _277  and  _279
REMARK  118  A    between atoms: _279  and  _280
REMARK  119  A    between atoms: _279  and  _282
REMARK  120  A    between atoms: _282  and  _283
REMARK  121  A    between atoms: _288  and  _289
REMARK  122  A    between atoms: _291  and  _293
REMARK  123  A    between atoms: _293  and  _294
REMARK  124  A    between atoms: _293  and  _296
REMARK  125  A    between atoms: _296  and  _297
REMARK  126  A    between atoms: _303  and  _305
REMARK  127  A    between atoms: _305  and  _306
REMARK  128  A    between atoms: _309  and  _311
REMARK  129  A    between atoms: _311  and  _312
REMARK  130  A    between atoms: _311  and  _314
REMARK  131  A    between atoms: _314  and  _315
REMARK  132  A    between atoms: _318  and  _320
REMARK  133  A    between atoms: _320  and  _321
REMARK  134  A    between atoms: _320  and  _323
REMARK  135  A    between atoms: _323  and  _324
REMARK  136  A    between atoms: _327  and  _329
REMARK  137  A    between atoms: _329  and  _330
REMARK  138  A    between atoms: _329  and  _332
REMARK  139  A    between atoms: _332  and  _333
REMARK  140  A    between atoms: _335  and  _337
REMARK  141  A    between atoms: _337  and  _338
REMARK  142  A    between atoms: _337  and  _340
REMARK  143  A    between atoms: _340  and  _341
REMARK  144  A    between atoms: _343  and  _345
REMARK  145  A    between atoms: _345  and  _346
REMARK  146  A    between atoms: _345  and  _348
REMARK  147  A    between atoms: _348  and  _349
REMARK  148  A    between atoms: _355  and  _357
REMARK  149  A    between atoms: _357  and  _358
REMARK  150  A    between atoms: _357  and  _360
REMARK  151  A    between atoms: _360  and  _361
REMARK  152  A    between atoms: _366  and  _367
REMARK  153  A    between atoms: _369  and  _371
REMARK  154  A    between atoms: _371  and  _372
REMARK  155  A    between atoms: _371  and  _374
REMARK  156  A    between atoms: _374  and  _375
REMARK  157  A    between atoms: _378  and  _380
REMARK  158  A    between atoms: _380  and  _381
REMARK  159  A    between atoms: _380  and  _383
REMARK  160  A    between atoms: _385  and  _387
REMARK  161  A    between atoms: _387  and  _388
REMARK  162  A    between atoms: _387  and  _390
REMARK  163  A    between atoms: _390  and  _391
REMARK  164  A    between atoms: _391  and  _392
REMARK  165  A    between atoms: _394  and  _396
REMARK  166  A    between atoms: _396  and  _397
REMARK  167  A    between atoms: _396  and  _399
REMARK  168  A    between atoms: _399  and  _400
REMARK  169  A    between atoms: _403  and  _405
REMARK  170  A    between atoms: _405  and  _406
REMARK  171  A    between atoms: _405  and  _408
REMARK  172  A    between atoms: _411  and  _413
REMARK  173  A    between atoms: _413  and  _414
REMARK  174  A    between atoms: _413  and  _416
REMARK  175  A    between atoms: _416  and  _417
REMARK  176  A    between atoms: _417  and  _418
REMARK  177  A    between atoms: _423  and  _425
REMARK  178  A    between atoms: _425  and  _426
REMARK  179  A    between atoms: _425  and  _428
REMARK  180  A    between atoms: _428  and  _429
REMARK  181  A    between atoms: _432  and  _434
REMARK  182  A    between atoms: _434  and  _435
REMARK  183  A    between atoms: _434  and  _437
REMARK  184  A    between atoms: _437  and  _438
REMARK  185  A    between atoms: _443  and  _445
REMARK  186  A    between atoms: _445  and  _446
REMARK  187  A    between atoms: _445  and  _448
REMARK  188  A    between atoms: _448  and  _449
REMARK  189  A    between atoms: _452  and  _454
REMARK  190  A    between atoms: _454  and  _455
REMARK  191  A    between atoms: _454  and  _457
REMARK  192  A    between atoms: _457  and  _458
REMARK  193  A    between atoms: _463  and  _464
REMARK  194  A    between atoms: _466  and  _468
REMARK  195  A    between atoms: _468  and  _469
REMARK  196  A    between atoms: _468  and  _471
REMARK  197  A    between atoms: _473  and  _475
REMARK  198  A    between atoms: _475  and  _476
REMARK  199  A    between atoms: _475  and  _478
REMARK  200  A    between atoms: _478  and  _479
REMARK  201  A    between atoms: _482  and  _484
REMARK  202  A    between atoms: _484  and  _485
REMARK  203  A    between atoms: _484  and  _487
REMARK  204  A    between atoms: _487  and  _488
REMARK  205  A    between atoms: _493  and  _495
REMARK  206  A    between atoms: _495  and  _496
REMARK  207  A    between atoms: _495  and  _498
REMARK  208  A    between atoms: _498  and  _499
REMARK  209  A    between atoms: _502  and  _504
REMARK  210  A    between atoms: _504  and  _505
REMARK  211  A    between atoms: _504  and  _507
REMARK  212  A    between atoms: _507  and  _508
REMARK  213  A    between atoms: _514  and  _516
REMARK  214  A    between atoms: _516  and  _517
REMARK  215  A    between atoms: _516  and  _519
REMARK  216  A    between atoms: _522  and  _524
REMARK  217  A    between atoms: _524  and  _525
REMARK  218  A    between atoms: _524  and  _527
REMARK  219  A    between atoms: _527  and  _528
REMARK  220  A    between atoms: _528  and  _529
REMARK  221  A    between atoms: _532  and  _534
REMARK  222  A    between atoms: _534  and  _535
REMARK  223  A    between atoms: _534  and  _537
REMARK  224  A    between atoms: _537  and  _538
REMARK  225  A    between atoms: _545  and  _546
REMARK  226  A    between atoms: _551  and  _553
REMARK  227  A    between atoms: _553  and  _554
REMARK  228  A    between atoms: _553  and  _556
REMARK  229  A    between atoms: _556  and  _557
REMARK  230  A    between atoms: _557  and  _558
REMARK  231  A    between atoms: _561  and  _563
REMARK  232  A    between atoms: _563  and  _564
REMARK  233  A    between atoms: _563  and  _566
REMARK  234  A    between atoms: _566  and  _567
REMARK  235  A    between atoms: _567  and  _568
REMARK  236  A    between atoms: _570  and  _572
REMARK  237  A    between atoms: _572  and  _573
REMARK  238  A    between atoms: _572  and  _575
REMARK  239  A    between atoms: _575  and  _576
REMARK  240  A    between atoms: _576  and  _577
REMARK  241  A    between atoms: _579  and  _581
REMARK  242  A    between atoms: _581  and  _582
REMARK  243  A    between atoms: _581  and  _584
REMARK  244  A    between atoms: _584  and  _585
REMARK  245  A    between atoms: _587  and  _589
REMARK  246  A    between atoms: _589  and  _590
REMARK  247  A    between atoms: _589  and  _592
REMARK  248  A    between atoms: _592  and  _593
REMARK  249  A    between atoms: _593  and  _594
REMARK  250  A    between atoms: _597  and  _599
REMARK  251  A    between atoms: _599  and  _600
REMARK  252  A    between atoms: _599  and  _602
REMARK  253  A    between atoms: _605  and  _607
REMARK  254  A    between atoms: _607  and  _608
REMARK  255  A    between atoms: _607  and  _610
REMARK  256  A    between atoms: _610  and  _611
REMARK  257  A    between atoms: _614  and  _616
REMARK  258  A    between atoms: _616  and  _617
REMARK  259  A    between atoms: _616  and  _619
REMARK  260  A    between atoms: _619  and  _620
REMARK                            x       y       z     vdW  Elec       q    Type
REMARK                         _______ _______ _______ _____ _____    ______ ____
ROOT
ATOM      1  C   GLN A   7       4.805   8.449   2.833  0.00  0.00    +0.241 C 
ATOM      2  N   LEU A   8       5.995   8.962   3.133  0.00  0.00    -0.297 N 
ATOM      3  H   LEU A   8       6.103   9.498   4.017  0.00  0.00    +0.150 HD
ATOM      4  O   GLN A   7       4.587   7.825   1.791  0.00  0.00    -0.273 OA
ENDROOT
BRANCH   2   5
ATOM      5  CA  LEU A   8       7.151   8.797   2.263  0.00  0.00    +0.149 C 
BRANCH   5   6
ATOM      6  C   LEU A   8       7.534   7.332   2.109  0.00  0.00    +0.241 C 
ATOM      7  N   GLY A   9       7.484   6.601   3.217  0.00  0.00    -0.295 N 
ATOM      8  H   GLY A   9       7.255   7.071   4.116  0.00  0.00    +0.150 HD
ATOM      9  O   LEU A   8       7.902   6.892   1.021  0.00  0.00    -0.273 OA
BRANCH   7  10
ATOM     10  CA  GLY A   9       7.737   5.167   3.222  0.00  0.00    +0.176 C 
BRANCH  10  11
ATOM     11  C   GLY A   9       6.822   4.402   2.290  0.00  0.00    +0.243 C 
ATOM     12  N   GLU A  10       5.537   4.739   2.319  0.00  0.00    -0.297 N 
ATOM     13  H   GLU A  10       5.224   5.463   2.997  0.00  0.00    +0.150 HD
ATOM     14  O   GLY A   9       7.274   3.531   1.547  0.00  0.00    -0.273 OA
BRANCH  12  15
ATOM     15  CA  GLU A  10       4.546   4.128   1.432  0.00  0.00    +0.149 C 
BRANCH  15  16
ATOM     16  C   GLU A  10       4.913   4.358  -0.036  0.00  0.00    +0.241 C 
ATOM     17  N   ARG A  11       5.191   5.619  -0.362  0.00  0.00    -0.297 N 
ATOM     18  H   ARG A  11       5.087   6.357   0.364  0.00  0.00    +0.150 HD
ATOM     19  O   GLU A  10       4.941   3.422  -0.843  0.00  0.00    -0.273 OA
BRANCH  17  20
ATOM     20  CA  ARG A  11       5.636   6.008  -1.697  0.00  0.00    +0.149 C 
BRANCH  20  21
ATOM     21  C   ARG A  11       6.924   5.294  -2.105  0.00  0.00    +0.241 C 
ATOM     22  N   GLN A  12       7.907   5.233  -1.207  0.00  0.00    -0.297 N 
ATOM     23  H   GLN A  12       7.793   5.696  -0.283  0.00  0.00    +0.150 HD
ATOM     24  O   ARG A  11       7.020   4.785  -3.223  0.00  0.00    -0.273 OA
BRANCH  22  25
ATOM     25  CA  GLN A  12       9.144   4.520  -1.514  0.00  0.00    +0.149 C 
BRANCH  25  26
ATOM     26  C   GLN A  12       8.918   3.021  -1.699  0.00  0.00    +0.241 C 
ATOM     27  N   LEU A  13       7.970   2.447  -0.956  0.00  0.00    -0.297 N 
ATOM     28  H   LEU A  13       7.455   3.015  -0.253  0.00  0.00    +0.150 HD
ATOM     29  O   GLN A  12       9.590   2.406  -2.526  0.00  0.00    -0.273 OA
BRANCH  27  30
ATOM     30  CA  LEU A  13       7.645   1.030  -1.117  0.00  0.00    +0.149 C 
BRANCH  30  31
ATOM     31  C   LEU A  13       7.064   0.750  -2.502  0.00  0.00    +0.241 C 
ATOM     32  N   LEU A  14       6.133   1.591  -2.954  0.00  0.00    -0.298 N 
ATOM     33  H   LEU A  14       5.810   2.371  -2.347  0.00  0.00    +0.150 HD
ATOM     34  O   LEU A  13       7.447  -0.225  -3.147  0.00  0.00    -0.273 OA
BRANCH  32  35
ATOM     35  CA  LEU A  14       5.560   1.433  -4.289  0.00  0.00    +0.137 C 
BRANCH  35  36
ATOM     36  C   LEU A  14       6.655   1.510  -5.359  0.00  0.00    +0.227 C 
ATOM     37  O   LEU A  14       6.646   0.776  -6.360  0.00  0.00    -0.286 OA
ENDBRANCH  35  36
BRANCH  35  38
ATOM     38  CB  LEU A  14       4.490   2.498  -4.536  0.00  0.00    +0.028 C 
BRANCH  38  39
ATOM     39  CG  LEU A  14       3.252   2.390  -3.625  0.00  0.00    +0.002 C 
ATOM     40  CD2 LEU A  14       2.329   3.603  -3.789  0.00  0.00    +0.000 C 
ATOM     41  CD1 LEU A  14       2.484   1.093  -3.881  0.00  0.00    +0.000 C 
ENDBRANCH  38  39
ENDBRANCH  35  38
ENDBRANCH  32  35
ENDBRANCH  30  31
BRANCH  30  42
ATOM     42  CB  LEU A  13       6.687   0.544  -0.018  0.00  0.00    +0.029 C 
BRANCH  42  43
ATOM     43  CG  LEU A  13       6.387  -0.957   0.028  0.00  0.00    +0.002 C 
ATOM     44  CD2 LEU A  13       5.412  -1.278   1.162  0.00  0.00    +0.000 C 
ATOM     45  CD1 LEU A  13       7.670  -1.768   0.166  0.00  0.00    +0.000 C 
ENDBRANCH  42  43
ENDBRANCH  30  42
ENDBRANCH  27  30
ENDBRANCH  25  26
BRANCH  25  46
ATOM     46  CB  GLN A  12      10.222   4.784  -0.467  0.00  0.00    +0.039 C 
BRANCH  46  47
ATOM     47  CG  GLN A  12      10.803   6.176  -0.599  0.00  0.00    +0.087 C 
BRANCH  47  48
ATOM     48  CD  GLN A  12      11.907   6.441   0.376  0.00  0.00    +0.219 C 
ATOM     49  OE1 GLN A  12      12.436   5.509   0.991  0.00  0.00    -0.275 OA
ATOM     50  NE2 GLN A  12      12.264   7.720   0.546  0.00  0.00    -0.329 N 
ATOM     51 HE21 GLN A  12      13.017   7.964   1.220  0.00  0.00    +0.145 HD
ATOM     52 HE22 GLN A  12      11.788   8.469   0.004  0.00  0.00    +0.145 HD
ENDBRANCH  47  48
ENDBRANCH  46  47
ENDBRANCH  25  46
ENDBRANCH  22  25
ENDBRANCH  20  21
BRANCH  20  53
ATOM     53  CB  ARG A  11       5.797   7.527  -1.771  0.00  0.00    +0.033 C 
BRANCH  53  54
ATOM     54  CG  ARG A  11       4.453   8.265  -1.721  0.00  0.00    +0.045 C 
BRANCH  54  55
ATOM     55  CD  ARG A  11       4.607   9.770  -1.504  0.00  0.00    +0.174 C 
BRANCH  55  56
ATOM     56  NE  ARG A  11       3.294  10.414  -1.416  0.00  0.00    -0.265 N 
ATOM     57  CZ  ARG A  11       3.089  11.727  -1.329  0.00  0.00    +0.342 C 
ATOM     58  NH2 ARG A  11       1.850  12.191  -1.262  0.00  0.00    -0.292 N 
ATOM     59 HH21 ARG A  11       1.681  13.215  -1.194  0.00  0.00    +0.255 HD
ATOM     60 HH22 ARG A  11       1.046  11.531  -1.278  0.00  0.00    +0.255 HD
ATOM     61  NH1 ARG A  11       4.103  12.584  -1.329  0.00  0.00    -0.292 N 
ATOM     62 HH11 ARG A  11       3.920  13.606  -1.260  0.00  0.00    +0.255 HD
ATOM     63 HH12 ARG A  11       5.080  12.234  -1.398  0.00  0.00    +0.255 HD
ATOM     64  HE  ARG A  11       2.456   9.798  -1.422  0.00  0.00    +0.259 HD
ENDBRANCH  55  56
ENDBRANCH  54  55
ENDBRANCH  53  54
ENDBRANCH  20  53
ENDBRANCH  17  20
ENDBRANCH  15  16
BRANCH  15  65
ATOM     65  CB  GLU A  10       3.164   4.740   1.722  0.00  0.00    +0.041 C 
BRANCH  65  66
ATOM     66  CG  GLU A  10       2.015   4.210   0.891  0.00  0.00    +0.116 C 
BRANCH  66  67
ATOM     67  CD  GLU A  10       1.568   2.836   1.331  0.00  0.00    +0.365 C 
ATOM     68  OE2 GLU A  10       2.291   2.213   2.145  0.00  0.00    -0.246 OA
ATOM     69  OE1 GLU A  10       0.494   2.377   0.870  0.00  0.00    -0.246 OA
ENDBRANCH  66  67
ENDBRANCH  65  66
ENDBRANCH  15  65
ENDBRANCH  12  15
ENDBRANCH  10  11
ENDBRANCH   7  10
ENDBRANCH   5   6
BRANCH   5  70
ATOM     70  CB  LEU A   8       8.345   9.575   2.828  0.00  0.00    +0.029 C 
BRANCH  70  71
ATOM     71  CG  LEU A   8       9.653   9.479   2.064  0.00  0.00    +0.002 C 
ATOM     72  CD2 LEU A   8      10.762  10.211   2.837  0.00  0.00    +0.000 C 
ATOM     73  CD1 LEU A   8       9.495  10.058   0.682  0.00  0.00    +0.000 C 
ENDBRANCH  70  71
ENDBRANCH   5  70
ENDBRANCH   2   5
BRANCH   1  74
ATOM     74  CA  GLN A   7       3.696   8.656   3.866  0.00  0.00    +0.149 C 
BRANCH  74  76
ATOM     75  C   ASN A   6       4.598   7.140   5.546  0.00  0.00    +0.241 C 
ATOM     76  N   GLN A   7       4.198   8.361   5.213  0.00  0.00    -0.297 N 
ATOM     77  H   GLN A   7       4.241   9.123   5.920  0.00  0.00    +0.150 HD
ATOM     78  O   ASN A   6       4.497   6.177   4.788  0.00  0.00    -0.273 OA
BRANCH  75  79
ATOM     79  CA  ASN A   6       5.190   6.967   6.937  0.00  0.00    +0.158 C 
BRANCH  79  81
ATOM     80  C   LEU A   5       7.196   8.358   6.732  0.00  0.00    +0.241 C 
ATOM     81  N   ASN A   6       6.034   8.101   7.327  0.00  0.00    -0.297 N 
ATOM     82  H   ASN A   6       5.714   8.725   8.094  0.00  0.00    +0.150 HD
ATOM     83  O   LEU A   5       7.663   7.663   5.820  0.00  0.00    -0.273 OA
BRANCH  80  84
ATOM     84  CA  LEU A   5       7.942   9.615   7.208  0.00  0.00    +0.149 C 
BRANCH  84  86
ATOM     85  C   SER A   4       6.271  11.218   6.458  0.00  0.00    +0.243 C 
ATOM     86  N   LEU A   5       7.010  10.717   7.446  0.00  0.00    -0.297 N 
ATOM     87  H   LEU A   5       6.923  11.116   8.403  0.00  0.00    +0.150 HD
ATOM     88  O   SER A   4       6.334  10.813   5.308  0.00  0.00    -0.273 OA
BRANCH  85  89
ATOM     89  CA  SER A   4       5.304  12.334   6.813  0.00  0.00    +0.178 C 
BRANCH  89  91
ATOM     90  C   THR A   3       3.911  10.970   8.251  0.00  0.00    +0.243 C 
ATOM     91  N   SER A   4       4.654  12.062   8.097  0.00  0.00    -0.295 N 
ATOM     92  H   SER A   4       4.774  12.724   8.890  0.00  0.00    +0.150 HD
ATOM     93  O   THR A   3       3.671  10.197   7.321  0.00  0.00    -0.273 OA
BRANCH  90  94
ATOM     94  CA  THR A   3       3.352  10.690   9.650  0.00  0.00    +0.176 C 
BRANCH  94  96
ATOM     95  C   LEU A   2       5.431  10.112  10.797  0.00  0.00    +0.241 C 
ATOM     96  N   THR A   3       4.352  10.882  10.695  0.00  0.00    -0.295 N 
ATOM     97  H   THR A   3       4.216  11.648  11.385  0.00  0.00    +0.150 HD
ATOM     98  O   LEU A   2       5.659   9.183  10.040  0.00  0.00    -0.273 OA
BRANCH  95  99
ATOM     99  CA  LEU A   2       6.422  10.461  11.903  0.00  0.00    +0.149 C 
BRANCH  99 101
ATOM    100  C   LEU A   1       7.068  12.611  10.997  0.00  0.00    +0.238 C 
ATOM    101  N   LEU A   2       6.580  11.900  12.006  0.00  0.00    -0.297 N 
ATOM    102  H   LEU A   2       6.306  12.382  12.886  0.00  0.00    +0.150 HD
ATOM    103  O   LEU A   1       7.410  12.106   9.923  0.00  0.00    -0.274 OA
BRANCH 100 104
ATOM    104  CA  LEU A   1       7.217  14.109  11.238  0.00  0.00    +0.145 C 
BRANCH 104 105
ATOM    105  N   LEU A   1       6.003  14.699  11.825  0.00  0.00    -0.238 NA
ATOM    106  H   LEU A   1       6.061  15.141  12.765  0.00  0.00    +0.142 HD
ENDBRANCH 104 105
BRANCH 104 107
ATOM    107  CB  LEU A   1       8.442  14.341  12.130  0.00  0.00    +0.026 C 
BRANCH 107 108
ATOM    108  CG  LEU A   1       9.165  15.681  12.017  0.00  0.00    +0.002 C 
ATOM    109  CD2 LEU A   1      10.275  15.736  13.062  0.00  0.00    +0.000 C 
ATOM    110  CD1 LEU A   1       9.712  15.893  10.611  0.00  0.00    +0.000 C 
ENDBRANCH 107 108
ENDBRANCH 104 107
ENDBRANCH 100 104
ENDBRANCH  99 101
BRANCH  99 111
ATOM    111  CB  LEU A   2       6.007   9.849  13.248  0.00  0.00    +0.029 C 
BRANCH 111 112
ATOM    112  CG  LEU A   2       7.117   9.743  14.310  0.00  0.00    +0.002 C 
ATOM    113  CD2 LEU A   2       6.565   9.148  15.607  0.00  0.00    +0.000 C 
ATOM    114  CD1 LEU A   2       8.297   8.925  13.838  0.00  0.00    +0.000 C 
ENDBRANCH 111 112
ENDBRANCH  99 111
ENDBRANCH  95  99
ENDBRANCH  94  96
BRANCH  94 115
ATOM    115  CB  THR A   3       2.108  11.566   9.906  0.00  0.00    +0.137 C 
ATOM    116  CG2 THR A   3       1.111  11.455   8.761  0.00  0.00    +0.034 C 
BRANCH 115 117
ATOM    117  OG1 THR A   3       1.472  11.135  11.119  0.00  0.00    -0.382 OA
ATOM    118  HG1 THR A   3       2.106  11.227  11.874  0.00  0.00    +0.210 HD
ENDBRANCH 115 117
ENDBRANCH  94 115
ENDBRANCH  90  94
ENDBRANCH  89  91
BRANCH  89 119
ATOM    119  CB  SER A   4       6.025  13.688   6.796  0.00  0.00    +0.166 C 
BRANCH 119 120
ATOM    120  OG  SER A   4       5.095  14.725   6.559  0.00  0.00    -0.380 OA
ATOM    121  H   SER A   4       5.568  15.595   6.550  0.00  0.00    +0.211 HD
ENDBRANCH 119 120
ENDBRANCH  89 119
ENDBRANCH  85  89
ENDBRANCH  84  86
BRANCH  84 122
ATOM    122  CB  LEU A   5       8.802   9.315   8.452  0.00  0.00    +0.029 C 
BRANCH 122 123
ATOM    123  CG  LEU A   5       9.992  10.268   8.651  0.00  0.00    +0.002 C 
ATOM    124  CD2 LEU A   5      10.604  10.089  10.032  0.00  0.00    +0.000 C 
ATOM    125  CD1 LEU A   5      11.047  10.034   7.582  0.00  0.00    +0.000 C 
ENDBRANCH 122 123
ENDBRANCH  84 122
ENDBRANCH  80  84
ENDBRANCH  79  81
BRANCH  79 126
ATOM    126  CB  ASN A   6       4.068   6.742   7.965  0.00  0.00    +0.114 C 
BRANCH 126 127
ATOM    127  CG  ASN A   6       4.585   6.224   9.315  0.00  0.00    +0.222 C 
ATOM    128  ND2 ASN A   6       3.698   6.182  10.305  0.00  0.00    -0.329 N 
ATOM    129 HD21 ASN A   6       3.978   5.822  11.240  0.00  0.00    +0.145 HD
ATOM    130 HD22 ASN A   6       2.724   6.509  10.145  0.00  0.00    +0.145 HD
ATOM    131  OD1 ASN A   6       5.747   5.849   9.455  0.00  0.00    -0.275 OA
ENDBRANCH 126 127
ENDBRANCH  79 126
ENDBRANCH  75  79
ENDBRANCH  74  76
BRANCH  74 132
ATOM    132  CB  GLN A   7       3.139  10.084   3.793  0.00  0.00    +0.039 C 
BRANCH 132 133
ATOM    133  CG  GLN A   7       2.667  10.489   2.407  0.00  0.00    +0.087 C 
BRANCH 133 134
ATOM    134  CD  GLN A   7       1.715  11.670   2.417  0.00  0.00    +0.219 C 
ATOM    135  OE1 GLN A   7       0.519  11.516   2.676  0.00  0.00    -0.275 OA
ATOM    136  NE2 GLN A   7       2.236  12.857   2.116  0.00  0.00    -0.329 N 
ATOM    137 HE21 GLN A   7       1.628  13.701   2.093  0.00  0.00    +0.145 HD
ATOM    138 HE22 GLN A   7       3.251  12.941   1.904  0.00  0.00    +0.145 HD
ENDBRANCH 133 134
ENDBRANCH 132 133
ENDBRANCH  74 132
ENDBRANCH   1  74
TORSDOF 59
REMARK  Name = ../refined-set-2016/2w8y/2w8y_pocket.pdb
REMARK  260 active torsions:
REMARK  status: ('A' for Active; 'I' for Inactive)
REMARK    1  A    between atoms: _1  and  _3
REMARK    2  A    between atoms: _3  and  _4
REMARK    3  A    between atoms: _3  and  _6
REMARK    4  A    between atoms: _6  and  _7
REMARK    5  A    between atoms: _10  and  _12
REMARK    6  A    between atoms: _12  and  _13
REMARK    7  A    between atoms: _16  and  _18
REMARK    8  A    between atoms: _18  and  _19
REMARK    9  A    between atoms: _18  and  _21
REMARK   10  A    between atoms: _21  and  _22
REMARK   11  A    between atoms: _24  and  _26
REMARK   12  A    between atoms: _26  and  _27
REMARK   13  A    between atoms: _26  and  _29
REMARK   14  A    between atoms: _29  and  _30
REMARK   15  A    between atoms: _33  and  _35
REMARK   16  A    between atoms: _35  and  _36
REMARK   17  A    between atoms: _35  and  _38
REMARK   18  A    between atoms: _38  and  _39
REMARK   19  A    between atoms: _42  and  _44
REMARK   20  A    between atoms: _44  and  _45
REMARK   21  A    between atoms: _44  and  _47
REMARK   22  A    between atoms: _47  and  _48
REMARK   23  A    between atoms: _51  and  _53
REMARK   24  A    between atoms: _53  and  _54
REMARK   25  A    between atoms: _53  and  _56
REMARK   26  A    between atoms: _56  and  _57
REMARK   27  A    between atoms: _59  and  _61
REMARK   28  A    between atoms: _61  and  _62
REMARK   29  A    between atoms: _61  and  _64
REMARK   30  A    between atoms: _64  and  _65
REMARK   31  A    between atoms: _68  and  _70
REMARK   32  A    between atoms: _70  and  _71
REMARK   33  A    between atoms: _70  and  _73
REMARK   34  A    between atoms: _73  and  _74
REMARK   35  A    between atoms: _79  and  _81
REMARK   36  A    between atoms: _81  and  _82
REMARK   37  A    between atoms: _81  and  _84
REMARK   38  A    between atoms: _84  and  _85
REMARK   39  A    between atoms: _85  and  _86
REMARK   40  A    between atoms: _91  and  _93
REMARK   41  A    between atoms: _93  and  _94
REMARK   42  A    between atoms: _93  and  _96
REMARK   43  A    between atoms: _96  and  _97
REMARK   44  A    between atoms: _100  and  _102
REMARK   45  A    between atoms: _102  and  _103
REMARK   46  A    between atoms: _105  and  _107
REMARK   47  A    between atoms: _107  and  _108
REMARK   48  A    between atoms: _107  and  _110
REMARK   49  A    between atoms: _110  and  _111
REMARK   50  A    between atoms: _111  and  _112
REMARK   51  A    between atoms: _115  and  _117
REMARK   52  A    between atoms: _117  and  _118
REMARK   53  A    between atoms: _117  and  _120
REMARK   54  A    between atoms: _120  and  _121
REMARK   55  A    between atoms: _121  and  _122
REMARK   56  A    between atoms: _122  and  _123
REMARK   57  A    between atoms: _132  and  _134
REMARK   58  A    between atoms: _134  and  _135
REMARK   59  A    between atoms: _134  and  _137
REMARK   60  A    between atoms: _137  and  _138
REMARK   61  A    between atoms: _138  and  _139
REMARK   62  A    between atoms: _144  and  _146
REMARK   63  A    between atoms: _146  and  _147
REMARK   64  A    between atoms: _146  and  _149
REMARK   65  A    between atoms: _149  and  _150
REMARK   66  A    between atoms: _153  and  _155
REMARK   67  A    between atoms: _155  and  _156
REMARK   68  A    between atoms: _155  and  _158
REMARK   69  A    between atoms: _158  and  _159
REMARK   70  A    between atoms: _162  and  _164
REMARK   71  A    between atoms: _164  and  _165
REMARK   72  A    between atoms: _164  and  _167
REMARK   73  A    between atoms: _167  and  _168
REMARK   74  A    between atoms: _178  and  _180
REMARK   75  A    between atoms: _180  and  _181
REMARK   76  A    between atoms: _180  and  _183
REMARK   77  A    between atoms: _183  and  _184
REMARK   78  A    between atoms: _184  and  _185
REMARK   79  A    between atoms: _187  and  _189
REMARK   80  A    between atoms: _189  and  _190
REMARK   81  A    between atoms: _189  and  _192
REMARK   82  A    between atoms: _192  and  _193
REMARK   83  A    between atoms: _195  and  _197
REMARK   84  A    between atoms: _197  and  _198
REMARK   85  A    between atoms: _197  and  _200
REMARK   86  A    between atoms: _200  and  _201
REMARK   87  A    between atoms: _204  and  _206
REMARK   88  A    between atoms: _206  and  _207
REMARK   89  A    between atoms: _206  and  _209
REMARK   90  A    between atoms: _209  and  _210
REMARK   91  A    between atoms: _210  and  _211
REMARK   92  A    between atoms: _213  and  _215
REMARK   93  A    between atoms: _215  and  _216
REMARK   94  A    between atoms: _215  and  _218
REMARK   95  A    between atoms: _221  and  _223
REMARK   96  A    between atoms: _223  and  _224
REMARK   97  A    between atoms: _223  and  _226
REMARK   98  A    between atoms: _226  and  _227
REMARK   99  A    between atoms: _233  and  _235
REMARK  100  A    between atoms: _235  and  _236
REMARK  101  A    between atoms: _238  and  _240
REMARK  102  A    between atoms: _240  and  _241
REMARK  103  A    between atoms: _240  and  _243
REMARK  104  A    between atoms: _243  and  _244
REMARK  105  A    between atoms: _247  and  _249
REMARK  106  A    between atoms: _249  and  _250
REMARK  107  A    between atoms: _252  and  _254
REMARK  108  A    between atoms: _254  and  _255
REMARK  109  A    between atoms: _254  and  _257
REMARK  110  A    between atoms: _257  and  _258
REMARK  111  A    between atoms: _258  and  _259
REMARK  112  A    between atoms: _259  and  _260
REMARK  113  A    between atoms: _269  and  _271
REMARK  114  A    between atoms: _271  and  _272
REMARK  115  A    between atoms: _271  and  _274
REMARK  116  A    between atoms: _274  and  _275
REMARK  117  A    between atoms: _277  and  _279
REMARK  118  A    between atoms: _279  and  _280
REMARK  119  A    between atoms: _279  and  _282
REMARK  120  A    between atoms: _282  and  _283
REMARK  121  A    between atoms: _288  and  _289
REMARK  122  A    between atoms: _291  and  _293
REMARK  123  A    between atoms: _293  and  _294
REMARK  124  A    between atoms: _293  and  _296
REMARK  125  A    between atoms: _296  and  _297
REMARK  126  A    between atoms: _303  and  _305
REMARK  127  A    between atoms: _305  and  _306
REMARK  128  A    between atoms: _309  and  _311
REMARK  129  A    between atoms: _311  and  _312
REMARK  130  A    between atoms: _311  and  _314
REMARK  131  A    between atoms: _314  and  _315
REMARK  132  A    between atoms: _318  and  _320
REMARK  133  A    between atoms: _320  and  _321
REMARK  134  A    between atoms: _320  and  _323
REMARK  135  A    between atoms: _323  and  _324
REMARK  136  A    between atoms: _327  and  _329
REMARK  137  A    between atoms: _329  and  _330
REMARK  138  A    between atoms: _329  and  _332
REMARK  139  A    between atoms: _332  and  _333
REMARK  140  A    between atoms: _335  and  _337
REMARK  141  A    between atoms: _337  and  _338
REMARK  142  A    between atoms: _337  and  _340
REMARK  143  A    between atoms: _340  and  _341
REMARK  144  A    between atoms: _343  and  _345
REMARK  145  A    between atoms: _345  and  _346
REMARK  146  A    between atoms: _345  and  _348
REMARK  147  A    between atoms: _348  and  _349
REMARK  148  A    between atoms: _355  and  _357
REMARK  149  A    between atoms: _357  and  _358
REMARK  150  A    between atoms: _357  and  _360
REMARK  151  A    between atoms: _360  and  _361
REMARK  152  A    between atoms: _366  and  _367
REMARK  153  A    between atoms: _369  and  _371
REMARK  154  A    between atoms: _371  and  _372
REMARK  155  A    between atoms: _371  and  _374
REMARK  156  A    between atoms: _374  and  _375
REMARK  157  A    between atoms: _378  and  _380
REMARK  158  A    between atoms: _380  and  _381
REMARK  159  A    between atoms: _380  and  _383
REMARK  160  A    between atoms: _385  and  _387
REMARK  161  A    between atoms: _387  and  _388
REMARK  162  A    between atoms: _387  and  _390
REMARK  163  A    between atoms: _390  and  _391
REMARK  164  A    between atoms: _391  and  _392
REMARK  165  A    between atoms: _394  and  _396
REMARK  166  A    between atoms: _396  and  _397
REMARK  167  A    between atoms: _396  and  _399
REMARK  168  A    between atoms: _399  and  _400
REMARK  169  A    between atoms: _403  and  _405
REMARK  170  A    between atoms: _405  and  _406
REMARK  171  A    between atoms: _405  and  _408
REMARK  172  A    between atoms: _411  and  _413
REMARK  173  A    between atoms: _413  and  _414
REMARK  174  A    between atoms: _413  and  _416
REMARK  175  A    between atoms: _416  and  _417
REMARK  176  A    between atoms: _417  and  _418
REMARK  177  A    between atoms: _423  and  _425
REMARK  178  A    between atoms: _425  and  _426
REMARK  179  A    between atoms: _425  and  _428
REMARK  180  A    between atoms: _428  and  _429
REMARK  181  A    between atoms: _432  and  _434
REMARK  182  A    between atoms: _434  and  _435
REMARK  183  A    between atoms: _434  and  _437
REMARK  184  A    between atoms: _437  and  _438
REMARK  185  A    between atoms: _443  and  _445
REMARK  186  A    between atoms: _445  and  _446
REMARK  187  A    between atoms: _445  and  _448
REMARK  188  A    between atoms: _448  and  _449
REMARK  189  A    between atoms: _452  and  _454
REMARK  190  A    between atoms: _454  and  _455
REMARK  191  A    between atoms: _454  and  _457
REMARK  192  A    between atoms: _457  and  _458
REMARK  193  A    between atoms: _463  and  _464
REMARK  194  A    between atoms: _466  and  _468
REMARK  195  A    between atoms: _468  and  _469
REMARK  196  A    between atoms: _468  and  _471
REMARK  197  A    between atoms: _473  and  _475
REMARK  198  A    between atoms: _475  and  _476
REMARK  199  A    between atoms: _475  and  _478
REMARK  200  A    between atoms: _478  and  _479
REMARK  201  A    between atoms: _482  and  _484
REMARK  202  A    between atoms: _484  and  _485
REMARK  203  A    between atoms: _484  and  _487
REMARK  204  A    between atoms: _487  and  _488
REMARK  205  A    between atoms: _493  and  _495
REMARK  206  A    between atoms: _495  and  _496
REMARK  207  A    between atoms: _495  and  _498
REMARK  208  A    between atoms: _498  and  _499
REMARK  209  A    between atoms: _502  and  _504
REMARK  210  A    between atoms: _504  and  _505
REMARK  211  A    between atoms: _504  and  _507
REMARK  212  A    between atoms: _507  and  _508
REMARK  213  A    between atoms: _514  and  _516
REMARK  214  A    between atoms: _516  and  _517
REMARK  215  A    between atoms: _516  and  _519
REMARK  216  A    between atoms: _522  and  _524
REMARK  217  A    between atoms: _524  and  _525
REMARK  218  A    between atoms: _524  and  _527
REMARK  219  A    between atoms: _527  and  _528
REMARK  220  A    between atoms: _528  and  _529
REMARK  221  A    between atoms: _532  and  _534
REMARK  222  A    between atoms: _534  and  _535
REMARK  223  A    between atoms: _534  and  _537
REMARK  224  A    between atoms: _537  and  _538
REMARK  225  A    between atoms: _545  and  _546
REMARK  226  A    between atoms: _551  and  _553
REMARK  227  A    between atoms: _553  and  _554
REMARK  228  A    between atoms: _553  and  _556
REMARK  229  A    between atoms: _556  and  _557
REMARK  230  A    between atoms: _557  and  _558
REMARK  231  A    between atoms: _561  and  _563
REMARK  232  A    between atoms: _563  and  _564
REMARK  233  A    between atoms: _563  and  _566
REMARK  234  A    between atoms: _566  and  _567
REMARK  235  A    between atoms: _567  and  _568
REMARK  236  A    between atoms: _570  and  _572
REMARK  237  A    between atoms: _572  and  _573
REMARK  238  A    between atoms: _572  and  _575
REMARK  239  A    between atoms: _575  and  _576
REMARK  240  A    between atoms: _576  and  _577
REMARK  241  A    between atoms: _579  and  _581
REMARK  242  A    between atoms: _581  and  _582
REMARK  243  A    between atoms: _581  and  _584
REMARK  244  A    between atoms: _584  and  _585
REMARK  245  A    between atoms: _587  and  _589
REMARK  246  A    between atoms: _589  and  _590
REMARK  247  A    between atoms: _589  and  _592
REMARK  248  A    between atoms: _592  and  _593
REMARK  249  A    between atoms: _593  and  _594
REMARK  250  A    between atoms: _597  and  _599
REMARK  251  A    between atoms: _599  and  _600
REMARK  252  A    between atoms: _599  and  _602
REMARK  253  A    between atoms: _605  and  _607
REMARK  254  A    between atoms: _607  and  _608
REMARK  255  A    between atoms: _607  and  _610
REMARK  256  A    between atoms: _610  and  _611
REMARK  257  A    between atoms: _614  and  _616
REMARK  258  A    between atoms: _616  and  _617
REMARK  259  A    between atoms: _616  and  _619
REMARK  260  A    between atoms: _619  and  _620
REMARK                            x       y       z     vdW  Elec       q    Type
REMARK                         _______ _______ _______ _____ _____    ______ ____
ROOT
ATOM      1  CA  MET A   5      15.061   2.435   2.359  0.00  0.00    +0.149 C 
ENDROOT
BRANCH   1   3
ATOM      2  C   LEU A   4      16.326   0.718   1.189  0.00  0.00    +0.241 C 
ATOM      3  N   MET A   5      15.394   1.031   2.094  0.00  0.00    -0.297 N 
ATOM      4  H   MET A   5      14.902   0.276   2.613  0.00  0.00    +0.150 HD
ATOM      5  O   LEU A   4      16.972   1.570   0.583  0.00  0.00    -0.273 OA
BRANCH   2   6
ATOM      6  CA  LEU A   4      16.590  -0.769   0.948  0.00  0.00    +0.149 C 
BRANCH   6   9
ATOM      7  C   SER A   3      17.420  -1.275   3.180  0.00  0.00    +0.243 C 
ATOM      8  O   SER A   3      18.293  -0.423   3.093  0.00  0.00    -0.273 OA
ATOM      9  N   LEU A   4      16.535  -1.507   2.208  0.00  0.00    -0.297 N 
ATOM     10  H   LEU A   4      15.795  -2.224   2.350  0.00  0.00    +0.150 HD
BRANCH   7  11
ATOM     11  CA  SER A   3      17.298  -2.127   4.429  0.00  0.00    +0.178 C 
BRANCH  11  14
ATOM     12  C   MET A   2      15.212  -1.125   5.187  0.00  0.00    +0.241 C 
ATOM     13  O   MET A   2      15.688   0.021   5.172  0.00  0.00    -0.273 OA
ATOM     14  N   SER A   3      15.910  -2.208   4.876  0.00  0.00    -0.295 N 
ATOM     15  H   SER A   3      15.457  -3.141   4.952  0.00  0.00    +0.150 HD
BRANCH  12  16
ATOM     16  CA  MET A   2      13.761  -1.363   5.579  0.00  0.00    +0.149 C 
BRANCH  16  18
ATOM     17  C   TRP A   1      12.956  -1.935   3.364  0.00  0.00    +0.239 C 
ATOM     18  N   MET A   2      13.136  -2.280   4.636  0.00  0.00    -0.297 N 
ATOM     19  H   MET A   2      12.826  -3.218   4.962  0.00  0.00    +0.150 HD
ATOM     20  O   TRP A   1      13.363  -0.868   2.911  0.00  0.00    -0.274 OA
BRANCH  17  21
ATOM     21  CA  TRP A   1      12.260  -2.940   2.443  0.00  0.00    +0.149 C 
BRANCH  21  22
ATOM     22  N   TRP A   1      12.617  -4.337   2.726  0.00  0.00    -0.238 NA
ATOM     23  H   TRP A   1      11.885  -5.027   2.990  0.00  0.00    +0.142 HD
ENDBRANCH  21  22
BRANCH  21  24
ATOM     24  CB  TRP A   1      10.741  -2.706   2.419  0.00  0.00    +0.054 C 
BRANCH  24  25
ATOM     25  CG  TRP A   1      10.053  -2.970   3.712  0.00  0.00    -0.002 A 
ATOM     26  CD2 TRP A   1       9.919  -2.073   4.819  0.00  0.00    +0.013 A 
ATOM     27  CE2 TRP A   1       9.201  -2.753   5.814  0.00  0.00    +0.056 A 
ATOM     28  CZ2 TRP A   1       8.879  -2.167   7.038  0.00  0.00    +0.017 A 
ATOM     29  CH2 TRP A   1       9.297  -0.884   7.249  0.00  0.00    +0.001 A 
ATOM     30  CZ3 TRP A   1      10.021  -0.176   6.269  0.00  0.00    +0.000 A 
ATOM     31  NE1 TRP A   1       8.917  -4.001   5.331  0.00  0.00    -0.352 N 
ATOM     32  HE1 TRP A   1       8.394  -4.740   5.842  0.00  0.00    +0.166 HD
ATOM     33  CE3 TRP A   1      10.328  -0.750   5.061  0.00  0.00    +0.001 A 
ATOM     34  CD1 TRP A   1       9.429  -4.121   4.073  0.00  0.00    +0.068 A 
ENDBRANCH  24  25
ENDBRANCH  21  24
ENDBRANCH  17  21
ENDBRANCH  16  18
BRANCH  16  35
ATOM     35  CB  MET A   2      13.678  -1.897   7.019  0.00  0.00    +0.041 C 
BRANCH  35  36
ATOM     36  CG  MET A   2      14.222  -0.920   8.065  0.00  0.00    +0.060 C 
BRANCH  36  37
ATOM     37  SD  MET A   2      13.156   0.517   8.258  0.00  0.00    -0.139 S 
ATOM     38  CE  MET A   2      11.863  -0.205   9.259  0.00  0.00    +0.069 C 
ENDBRANCH  36  37
ENDBRANCH  35  36
ENDBRANCH  16  35
ENDBRANCH  12  16
ENDBRANCH  11  14
BRANCH  11  39
ATOM     39  CB  SER A   3      17.850  -3.525   4.148  0.00  0.00    +0.166 C 
BRANCH  39  40
ATOM     40  OG  SER A   3      17.912  -4.270   5.343  0.00  0.00    -0.380 OA
ATOM     41  H   SER A   3      18.270  -5.172   5.150  0.00  0.00    +0.211 HD
ENDBRANCH  39  40
ENDBRANCH  11  39
ENDBRANCH   7  11
ENDBRANCH   6   9
BRANCH   6  42
ATOM     42  CB  LEU A   4      15.595  -1.329  -0.075  0.00  0.00    +0.029 C 
BRANCH  42  43
ATOM     43  CG  LEU A   4      15.786  -2.773  -0.533  0.00  0.00    +0.002 C 
ATOM     44  CD2 LEU A   4      14.556  -3.251  -1.328  0.00  0.00    +0.000 C 
ATOM     45  CD1 LEU A   4      17.063  -2.914  -1.362  0.00  0.00    +0.000 C 
ENDBRANCH  42  43
ENDBRANCH   6  42
ENDBRANCH   2   6
ENDBRANCH   1   3
BRANCH   1  46
ATOM     46  C   MET A   5      16.155   3.177   3.112  0.00  0.00    +0.241 C 
ATOM     47  N   VAL A   6      16.759   2.544   4.112  0.00  0.00    -0.297 N 
ATOM     48  H   VAL A   6      16.473   1.575   4.358  0.00  0.00    +0.150 HD
ATOM     49  O   MET A   5      16.467   4.314   2.769  0.00  0.00    -0.273 OA
BRANCH  47  50
ATOM     50  CA  VAL A   6      17.830   3.207   4.873  0.00  0.00    +0.149 C 
BRANCH  50  51
ATOM     51  C   VAL A   6      19.095   3.348   4.024  0.00  0.00    +0.241 C 
ATOM     52  O   VAL A   6      19.798   4.348   4.125  0.00  0.00    -0.273 OA
ATOM     53  N   PHE A   7      19.370   2.353   3.187  0.00  0.00    -0.297 N 
ATOM     54  H   PHE A   7      18.769   1.504   3.203  0.00  0.00    +0.150 HD
BRANCH  53  55
ATOM     55  CA  PHE A   7      20.491   2.409   2.241  0.00  0.00    +0.153 C 
BRANCH  55  56
ATOM     56  C   PHE A   7      20.280   3.536   1.236  0.00  0.00    +0.241 C 
ATOM     57  O   PHE A   7      21.182   4.323   0.982  0.00  0.00    -0.273 OA
ATOM     58  N   GLY A   8      19.083   3.614   0.664  0.00  0.00    -0.295 N 
ATOM     59  H   GLY A   8      18.384   2.865   0.845  0.00  0.00    +0.150 HD
BRANCH  58  60
ATOM     60  CA  GLY A   8      18.726   4.727  -0.213  0.00  0.00    +0.176 C 
BRANCH  60  61
ATOM     61  C   GLY A   8      18.903   6.063   0.483  0.00  0.00    +0.243 C 
ATOM     62  N   LEU A   9      18.376   6.165   1.705  0.00  0.00    -0.297 N 
ATOM     63  H   LEU A   9      17.839   5.361   2.089  0.00  0.00    +0.150 HD
ATOM     64  O   GLY A   8      19.484   6.991  -0.083  0.00  0.00    -0.273 OA
BRANCH  62  65
ATOM     65  CA  LEU A   9      18.528   7.371   2.525  0.00  0.00    +0.149 C 
BRANCH  65  66
ATOM     66  C   LEU A   9      19.995   7.773   2.671  0.00  0.00    +0.241 C 
ATOM     67  N   GLY A  10      20.849   6.793   2.961  0.00  0.00    -0.296 N 
ATOM     68  H   GLY A  10      20.483   5.838   3.148  0.00  0.00    +0.150 HD
ATOM     69  O   LEU A   9      20.341   8.947   2.527  0.00  0.00    -0.273 OA
BRANCH  67  70
ATOM     70  CA  GLY A  10      22.276   7.030   3.022  0.00  0.00    +0.163 C 
BRANCH  70  71
ATOM     71  C   GLY A  10      22.832   7.568   1.714  0.00  0.00    +0.229 C 
ATOM     72  O   GLY A  10      23.645   8.494   1.709  0.00  0.00    -0.286 OA
ENDBRANCH  70  71
ENDBRANCH  67  70
ENDBRANCH  65  66
BRANCH  65  73
ATOM     73  CB  LEU A   9      17.907   7.163   3.913  0.00  0.00    +0.029 C 
BRANCH  73  74
ATOM     74  CG  LEU A   9      18.160   8.248   4.973  0.00  0.00    +0.002 C 
ATOM     75  CD2 LEU A   9      17.655   7.784   6.322  0.00  0.00    +0.000 C 
ATOM     76  CD1 LEU A   9      17.505   9.562   4.572  0.00  0.00    +0.000 C 
ENDBRANCH  73  74
ENDBRANCH  65  73
ENDBRANCH  62  65
ENDBRANCH  60  61
ENDBRANCH  58  60
ENDBRANCH  55  56
BRANCH  55  77
ATOM     77  CB  PHE A   7      20.612   1.067   1.509  0.00  0.00    +0.055 C 
BRANCH  77  78
ATOM     78  CG  PHE A   7      21.976   0.767   0.962  0.00  0.00    -0.020 A 
ATOM     79  CD2 PHE A   7      23.055   0.564   1.815  0.00  0.00    -0.004 A 
ATOM     80  CE2 PHE A   7      24.302   0.225   1.297  0.00  0.00    -0.000 A 
ATOM     81  CZ  PHE A   7      24.467   0.070  -0.082  0.00  0.00    -0.000 A 
ATOM     82  CE1 PHE A   7      23.403   0.253  -0.921  0.00  0.00    -0.000 A 
ATOM     83  CD1 PHE A   7      22.159   0.579  -0.400  0.00  0.00    -0.004 A 
ENDBRANCH  77  78
ENDBRANCH  55  77
ENDBRANCH  53  55
ENDBRANCH  50  51
BRANCH  50  84
ATOM     84  CB  VAL A   6      18.133   2.520   6.244  0.00  0.00    +0.027 C 
ATOM     85  CG2 VAL A   6      18.807   3.522   7.205  0.00  0.00    +0.002 C 
ATOM     86  CG1 VAL A   6      19.001   1.274   6.081  0.00  0.00    +0.002 C 
ENDBRANCH  50  84
ENDBRANCH  47  50
ENDBRANCH   1  46
BRANCH   1  87
ATOM     87  CB  MET A   5      13.737   2.566   3.082  0.00  0.00    +0.041 C 
BRANCH  87  88
ATOM     88  CG  MET A   5      12.565   2.207   2.219  0.00  0.00    +0.060 C 
BRANCH  88  89
ATOM     89  SD  MET A   5      11.022   2.497   3.069  0.00  0.00    -0.139 S 
ATOM     90  CE  MET A   5       9.897   1.545   2.040  0.00  0.00    +0.069 C 
ENDBRANCH  88  89
ENDBRANCH  87  88
ENDBRANCH   1  87
TORSDOF 37
REMARK  Name = ../refined-set-2016/2w8y/2w8y_pocket.pdb
REMARK  260 active torsions:
REMARK  status: ('A' for Active; 'I' for Inactive)
REMARK    1  A    between atoms: _1  and  _3
REMARK    2  A    between atoms: _3  and  _4
REMARK    3  A    between atoms: _3  and  _6
REMARK    4  A    between atoms: _6  and  _7
REMARK    5  A    between atoms: _10  and  _12
REMARK    6  A    between atoms: _12  and  _13
REMARK    7  A    between atoms: _16  and  _18
REMARK    8  A    between atoms: _18  and  _19
REMARK    9  A    between atoms: _18  and  _21
REMARK   10  A    between atoms: _21  and  _22
REMARK   11  A    between atoms: _24  and  _26
REMARK   12  A    between atoms: _26  and  _27
REMARK   13  A    between atoms: _26  and  _29
REMARK   14  A    between atoms: _29  and  _30
REMARK   15  A    between atoms: _33  and  _35
REMARK   16  A    between atoms: _35  and  _36
REMARK   17  A    between atoms: _35  and  _38
REMARK   18  A    between atoms: _38  and  _39
REMARK   19  A    between atoms: _42  and  _44
REMARK   20  A    between atoms: _44  and  _45
REMARK   21  A    between atoms: _44  and  _47
REMARK   22  A    between atoms: _47  and  _48
REMARK   23  A    between atoms: _51  and  _53
REMARK   24  A    between atoms: _53  and  _54
REMARK   25  A    between atoms: _53  and  _56
REMARK   26  A    between atoms: _56  and  _57
REMARK   27  A    between atoms: _59  and  _61
REMARK   28  A    between atoms: _61  and  _62
REMARK   29  A    between atoms: _61  and  _64
REMARK   30  A    between atoms: _64  and  _65
REMARK   31  A    between atoms: _68  and  _70
REMARK   32  A    between atoms: _70  and  _71
REMARK   33  A    between atoms: _70  and  _73
REMARK   34  A    between atoms: _73  and  _74
REMARK   35  A    between atoms: _79  and  _81
REMARK   36  A    between atoms: _81  and  _82
REMARK   37  A    between atoms: _81  and  _84
REMARK   38  A    between atoms: _84  and  _85
REMARK   39  A    between atoms: _85  and  _86
REMARK   40  A    between atoms: _91  and  _93
REMARK   41  A    between atoms: _93  and  _94
REMARK   42  A    between atoms: _93  and  _96
REMARK   43  A    between atoms: _96  and  _97
REMARK   44  A    between atoms: _100  and  _102
REMARK   45  A    between atoms: _102  and  _103
REMARK   46  A    between atoms: _105  and  _107
REMARK   47  A    between atoms: _107  and  _108
REMARK   48  A    between atoms: _107  and  _110
REMARK   49  A    between atoms: _110  and  _111
REMARK   50  A    between atoms: _111  and  _112
REMARK   51  A    between atoms: _115  and  _117
REMARK   52  A    between atoms: _117  and  _118
REMARK   53  A    between atoms: _117  and  _120
REMARK   54  A    between atoms: _120  and  _121
REMARK   55  A    between atoms: _121  and  _122
REMARK   56  A    between atoms: _122  and  _123
REMARK   57  A    between atoms: _132  and  _134
REMARK   58  A    between atoms: _134  and  _135
REMARK   59  A    between atoms: _134  and  _137
REMARK   60  A    between atoms: _137  and  _138
REMARK   61  A    between atoms: _138  and  _139
REMARK   62  A    between atoms: _144  and  _146
REMARK   63  A    between atoms: _146  and  _147
REMARK   64  A    between atoms: _146  and  _149
REMARK   65  A    between atoms: _149  and  _150
REMARK   66  A    between atoms: _153  and  _155
REMARK   67  A    between atoms: _155  and  _156
REMARK   68  A    between atoms: _155  and  _158
REMARK   69  A    between atoms: _158  and  _159
REMARK   70  A    between atoms: _162  and  _164
REMARK   71  A    between atoms: _164  and  _165
REMARK   72  A    between atoms: _164  and  _167
REMARK   73  A    between atoms: _167  and  _168
REMARK   74  A    between atoms: _178  and  _180
REMARK   75  A    between atoms: _180  and  _181
REMARK   76  A    between atoms: _180  and  _183
REMARK   77  A    between atoms: _183  and  _184
REMARK   78  A    between atoms: _184  and  _185
REMARK   79  A    between atoms: _187  and  _189
REMARK   80  A    between atoms: _189  and  _190
REMARK   81  A    between atoms: _189  and  _192
REMARK   82  A    between atoms: _192  and  _193
REMARK   83  A    between atoms: _195  and  _197
REMARK   84  A    between atoms: _197  and  _198
REMARK   85  A    between atoms: _197  and  _200
REMARK   86  A    between atoms: _200  and  _201
REMARK   87  A    between atoms: _204  and  _206
REMARK   88  A    between atoms: _206  and  _207
REMARK   89  A    between atoms: _206  and  _209
REMARK   90  A    between atoms: _209  and  _210
REMARK   91  A    between atoms: _210  and  _211
REMARK   92  A    between atoms: _213  and  _215
REMARK   93  A    between atoms: _215  and  _216
REMARK   94  A    between atoms: _215  and  _218
REMARK   95  A    between atoms: _221  and  _223
REMARK   96  A    between atoms: _223  and  _224
REMARK   97  A    between atoms: _223  and  _226
REMARK   98  A    between atoms: _226  and  _227
REMARK   99  A    between atoms: _233  and  _235
REMARK  100  A    between atoms: _235  and  _236
REMARK  101  A    between atoms: _238  and  _240
REMARK  102  A    between atoms: _240  and  _241
REMARK  103  A    between atoms: _240  and  _243
REMARK  104  A    between atoms: _243  and  _244
REMARK  105  A    between atoms: _247  and  _249
REMARK  106  A    between atoms: _249  and  _250
REMARK  107  A    between atoms: _252  and  _254
REMARK  108  A    between atoms: _254  and  _255
REMARK  109  A    between atoms: _254  and  _257
REMARK  110  A    between atoms: _257  and  _258
REMARK  111  A    between atoms: _258  and  _259
REMARK  112  A    between atoms: _259  and  _260
REMARK  113  A    between atoms: _269  and  _271
REMARK  114  A    between atoms: _271  and  _272
REMARK  115  A    between atoms: _271  and  _274
REMARK  116  A    between atoms: _274  and  _275
REMARK  117  A    between atoms: _277  and  _279
REMARK  118  A    between atoms: _279  and  _280
REMARK  119  A    between atoms: _279  and  _282
REMARK  120  A    between atoms: _282  and  _283
REMARK  121  A    between atoms: _288  and  _289
REMARK  122  A    between atoms: _291  and  _293
REMARK  123  A    between atoms: _293  and  _294
REMARK  124  A    between atoms: _293  and  _296
REMARK  125  A    between atoms: _296  and  _297
REMARK  126  A    between atoms: _303  and  _305
REMARK  127  A    between atoms: _305  and  _306
REMARK  128  A    between atoms: _309  and  _311
REMARK  129  A    between atoms: _311  and  _312
REMARK  130  A    between atoms: _311  and  _314
REMARK  131  A    between atoms: _314  and  _315
REMARK  132  A    between atoms: _318  and  _320
REMARK  133  A    between atoms: _320  and  _321
REMARK  134  A    between atoms: _320  and  _323
REMARK  135  A    between atoms: _323  and  _324
REMARK  136  A    between atoms: _327  and  _329
REMARK  137  A    between atoms: _329  and  _330
REMARK  138  A    between atoms: _329  and  _332
REMARK  139  A    between atoms: _332  and  _333
REMARK  140  A    between atoms: _335  and  _337
REMARK  141  A    between atoms: _337  and  _338
REMARK  142  A    between atoms: _337  and  _340
REMARK  143  A    between atoms: _340  and  _341
REMARK  144  A    between atoms: _343  and  _345
REMARK  145  A    between atoms: _345  and  _346
REMARK  146  A    between atoms: _345  and  _348
REMARK  147  A    between atoms: _348  and  _349
REMARK  148  A    between atoms: _355  and  _357
REMARK  149  A    between atoms: _357  and  _358
REMARK  150  A    between atoms: _357  and  _360
REMARK  151  A    between atoms: _360  and  _361
REMARK  152  A    between atoms: _366  and  _367
REMARK  153  A    between atoms: _369  and  _371
REMARK  154  A    between atoms: _371  and  _372
REMARK  155  A    between atoms: _371  and  _374
REMARK  156  A    between atoms: _374  and  _375
REMARK  157  A    between atoms: _378  and  _380
REMARK  158  A    between atoms: _380  and  _381
REMARK  159  A    between atoms: _380  and  _383
REMARK  160  A    between atoms: _385  and  _387
REMARK  161  A    between atoms: _387  and  _388
REMARK  162  A    between atoms: _387  and  _390
REMARK  163  A    between atoms: _390  and  _391
REMARK  164  A    between atoms: _391  and  _392
REMARK  165  A    between atoms: _394  and  _396
REMARK  166  A    between atoms: _396  and  _397
REMARK  167  A    between atoms: _396  and  _399
REMARK  168  A    between atoms: _399  and  _400
REMARK  169  A    between atoms: _403  and  _405
REMARK  170  A    between atoms: _405  and  _406
REMARK  171  A    between atoms: _405  and  _408
REMARK  172  A    between atoms: _411  and  _413
REMARK  173  A    between atoms: _413  and  _414
REMARK  174  A    between atoms: _413  and  _416
REMARK  175  A    between atoms: _416  and  _417
REMARK  176  A    between atoms: _417  and  _418
REMARK  177  A    between atoms: _423  and  _425
REMARK  178  A    between atoms: _425  and  _426
REMARK  179  A    between atoms: _425  and  _428
REMARK  180  A    between atoms: _428  and  _429
REMARK  181  A    between atoms: _432  and  _434
REMARK  182  A    between atoms: _434  and  _435
REMARK  183  A    between atoms: _434  and  _437
REMARK  184  A    between atoms: _437  and  _438
REMARK  185  A    between atoms: _443  and  _445
REMARK  186  A    between atoms: _445  and  _446
REMARK  187  A    between atoms: _445  and  _448
REMARK  188  A    between atoms: _448  and  _449
REMARK  189  A    between atoms: _452  and  _454
REMARK  190  A    between atoms: _454  and  _455
REMARK  191  A    between atoms: _454  and  _457
REMARK  192  A    between atoms: _457  and  _458
REMARK  193  A    between atoms: _463  and  _464
REMARK  194  A    between atoms: _466  and  _468
REMARK  195  A    between atoms: _468  and  _469
REMARK  196  A    between atoms: _468  and  _471
REMARK  197  A    between atoms: _473  and  _475
REMARK  198  A    between atoms: _475  and  _476
REMARK  199  A    between atoms: _475  and  _478
REMARK  200  A    between atoms: _478  and  _479
REMARK  201  A    between atoms: _482  and  _484
REMARK  202  A    between atoms: _484  and  _485
REMARK  203  A    between atoms: _484  and  _487
REMARK  204  A    between atoms: _487  and  _488
REMARK  205  A    between atoms: _493  and  _495
REMARK  206  A    between atoms: _495  and  _496
REMARK  207  A    between atoms: _495  and  _498
REMARK  208  A    between atoms: _498  and  _499
REMARK  209  A    between atoms: _502  and  _504
REMARK  210  A    between atoms: _504  and  _505
REMARK  211  A    between atoms: _504  and  _507
REMARK  212  A    between atoms: _507  and  _508
REMARK  213  A    between atoms: _514  and  _516
REMARK  214  A    between atoms: _516  and  _517
REMARK  215  A    between atoms: _516  and  _519
REMARK  216  A    between atoms: _522  and  _524
REMARK  217  A    between atoms: _524  and  _525
REMARK  218  A    between atoms: _524  and  _527
REMARK  219  A    between atoms: _527  and  _528
REMARK  220  A    between atoms: _528  and  _529
REMARK  221  A    between atoms: _532  and  _534
REMARK  222  A    between atoms: _534  and  _535
REMARK  223  A    between atoms: _534  and  _537
REMARK  224  A    between atoms: _537  and  _538
REMARK  225  A    between atoms: _545  and  _546
REMARK  226  A    between atoms: _551  and  _553
REMARK  227  A    between atoms: _553  and  _554
REMARK  228  A    between atoms: _553  and  _556
REMARK  229  A    between atoms: _556  and  _557
REMARK  230  A    between atoms: _557  and  _558
REMARK  231  A    between atoms: _561  and  _563
REMARK  232  A    between atoms: _563  and  _564
REMARK  233  A    between atoms: _563  and  _566
REMARK  234  A    between atoms: _566  and  _567
REMARK  235  A    between atoms: _567  and  _568
REMARK  236  A    between atoms: _570  and  _572
REMARK  237  A    between atoms: _572  and  _573
REMARK  238  A    between atoms: _572  and  _575
REMARK  239  A    between atoms: _575  and  _576
REMARK  240  A    between atoms: _576  and  _577
REMARK  241  A    between atoms: _579  and  _581
REMARK  242  A    between atoms: _581  and  _582
REMARK  243  A    between atoms: _581  and  _584
REMARK  244  A    between atoms: _584  and  _585
REMARK  245  A    between atoms: _587  and  _589
REMARK  246  A    between atoms: _589  and  _590
REMARK  247  A    between atoms: _589  and  _592
REMARK  248  A    between atoms: _592  and  _593
REMARK  249  A    between atoms: _593  and  _594
REMARK  250  A    between atoms: _597  and  _599
REMARK  251  A    between atoms: _599  and  _600
REMARK  252  A    between atoms: _599  and  _602
REMARK  253  A    between atoms: _605  and  _607
REMARK  254  A    between atoms: _607  and  _608
REMARK  255  A    between atoms: _607  and  _610
REMARK  256  A    between atoms: _610  and  _611
REMARK  257  A    between atoms: _614  and  _616
REMARK  258  A    between atoms: _616  and  _617
REMARK  259  A    between atoms: _616  and  _619
REMARK  260  A    between atoms: _619  and  _620
REMARK                            x       y       z     vdW  Elec       q    Type
REMARK                         _______ _______ _______ _____ _____    ______ ____
ROOT
ATOM      1  CA  ARG A   1      20.809  10.548  -1.128  0.00  0.00    +0.145 C 
ENDROOT
BRANCH   1   2
ATOM      2  C   ARG A   1      21.488  11.575  -0.234  0.00  0.00    +0.238 C 
ATOM      3  N   SER A   2      21.719  11.211   1.024  0.00  0.00    -0.296 N 
ATOM      4  H   SER A   2      21.452  10.255   1.333  0.00  0.00    +0.150 HD
ATOM      5  O   ARG A   1      21.790  12.681  -0.678  0.00  0.00    -0.274 OA
BRANCH   3   6
ATOM      6  CA  SER A   2      22.340  12.124   1.983  0.00  0.00    +0.166 C 
BRANCH   6   7
ATOM      7  CB  SER A   2      23.792  12.374   1.562  0.00  0.00    +0.229 C 
ATOM      8  OG  SER A   2      24.267  13.510   1.554  0.00  0.00    -0.286 OA
ENDBRANCH   6   7
BRANCH   6   9
ATOM      9  C   SER A   2      22.299  11.555   3.398  0.00  0.00    +0.165 C 
BRANCH   9  10
ATOM     10  O   SER A   2      20.973  11.229   3.820  0.00  0.00    -0.380 OA
ATOM     11  H   SER A   2      20.590  10.552   3.208  0.00  0.00    +0.211 HD
ENDBRANCH   9  10
ENDBRANCH   6   9
ENDBRANCH   3   6
ENDBRANCH   1   2
BRANCH   1  12
ATOM     12  N   ARG A   1      21.292   9.197  -0.849  0.00  0.00    -0.238 NA
ATOM     13  H   ARG A   1      20.620   8.482  -0.504  0.00  0.00    +0.142 HD
ENDBRANCH   1  12
BRANCH   1  14
ATOM     14  CB  ARG A   1      19.292  10.634  -0.936  0.00  0.00    +0.030 C 
BRANCH  14  15
ATOM     15  CG  ARG A   1      18.475   9.825  -1.926  0.00  0.00    +0.045 C 
BRANCH  15  16
ATOM     16  CD  ARG A   1      16.992  10.149  -1.792  0.00  0.00    +0.174 C 
BRANCH  16  17
ATOM     17  NE  ARG A   1      16.481   9.820  -0.462  0.00  0.00    -0.265 N 
ATOM     18  HE  ARG A   1      16.474  10.576   0.252  0.00  0.00    +0.259 HD
ATOM     19  CZ  ARG A   1      16.023   8.620  -0.096  0.00  0.00    +0.342 C 
ATOM     20  NH2 ARG A   1      15.584   8.427   1.138  0.00  0.00    -0.292 N 
ATOM     21 HH21 ARG A   1      15.596   9.210   1.823  0.00  0.00    +0.255 HD
ATOM     22 HH22 ARG A   1      15.227   7.493   1.423  0.00  0.00    +0.255 HD
ATOM     23  NH1 ARG A   1      15.992   7.611  -0.949  0.00  0.00    -0.292 N 
ATOM     24 HH11 ARG A   1      15.632   6.684  -0.645  0.00  0.00    +0.255 HD
ATOM     25 HH12 ARG A   1      16.328   7.744  -1.924  0.00  0.00    +0.255 HD
ENDBRANCH  16  17
ENDBRANCH  15  16
ENDBRANCH  14  15
ENDBRANCH   1  14
TORSDOF 10
REMARK  Name = ../refined-set-2016/2w8y/2w8y_pocket.pdb
REMARK  260 active torsions:
REMARK  status: ('A' for Active; 'I' for Inactive)
REMARK    1  A    between atoms: _1  and  _3
REMARK    2  A    between atoms: _3  and  _4
REMARK    3  A    between atoms: _3  and  _6
REMARK    4  A    between atoms: _6  and  _7
REMARK    5  A    between atoms: _10  and  _12
REMARK    6  A    between atoms: _12  and  _13
REMARK    7  A    between atoms: _16  and  _18
REMARK    8  A    between atoms: _18  and  _19
REMARK    9  A    between atoms: _18  and  _21
REMARK   10  A    between atoms: _21  and  _22
REMARK   11  A    between atoms: _24  and  _26
REMARK   12  A    between atoms: _26  and  _27
REMARK   13  A    between atoms: _26  and  _29
REMARK   14  A    between atoms: _29  and  _30
REMARK   15  A    between atoms: _33  and  _35
REMARK   16  A    between atoms: _35  and  _36
REMARK   17  A    between atoms: _35  and  _38
REMARK   18  A    between atoms: _38  and  _39
REMARK   19  A    between atoms: _42  and  _44
REMARK   20  A    between atoms: _44  and  _45
REMARK   21  A    between atoms: _44  and  _47
REMARK   22  A    between atoms: _47  and  _48
REMARK   23  A    between atoms: _51  and  _53
REMARK   24  A    between atoms: _53  and  _54
REMARK   25  A    between atoms: _53  and  _56
REMARK   26  A    between atoms: _56  and  _57
REMARK   27  A    between atoms: _59  and  _61
REMARK   28  A    between atoms: _61  and  _62
REMARK   29  A    between atoms: _61  and  _64
REMARK   30  A    between atoms: _64  and  _65
REMARK   31  A    between atoms: _68  and  _70
REMARK   32  A    between atoms: _70  and  _71
REMARK   33  A    between atoms: _70  and  _73
REMARK   34  A    between atoms: _73  and  _74
REMARK   35  A    between atoms: _79  and  _81
REMARK   36  A    between atoms: _81  and  _82
REMARK   37  A    between atoms: _81  and  _84
REMARK   38  A    between atoms: _84  and  _85
REMARK   39  A    between atoms: _85  and  _86
REMARK   40  A    between atoms: _91  and  _93
REMARK   41  A    between atoms: _93  and  _94
REMARK   42  A    between atoms: _93  and  _96
REMARK   43  A    between atoms: _96  and  _97
REMARK   44  A    between atoms: _100  and  _102
REMARK   45  A    between atoms: _102  and  _103
REMARK   46  A    between atoms: _105  and  _107
REMARK   47  A    between atoms: _107  and  _108
REMARK   48  A    between atoms: _107  and  _110
REMARK   49  A    between atoms: _110  and  _111
REMARK   50  A    between atoms: _111  and  _112
REMARK   51  A    between atoms: _115  and  _117
REMARK   52  A    between atoms: _117  and  _118
REMARK   53  A    between atoms: _117  and  _120
REMARK   54  A    between atoms: _120  and  _121
REMARK   55  A    between atoms: _121  and  _122
REMARK   56  A    between atoms: _122  and  _123
REMARK   57  A    between atoms: _132  and  _134
REMARK   58  A    between atoms: _134  and  _135
REMARK   59  A    between atoms: _134  and  _137
REMARK   60  A    between atoms: _137  and  _138
REMARK   61  A    between atoms: _138  and  _139
REMARK   62  A    between atoms: _144  and  _146
REMARK   63  A    between atoms: _146  and  _147
REMARK   64  A    between atoms: _146  and  _149
REMARK   65  A    between atoms: _149  and  _150
REMARK   66  A    between atoms: _153  and  _155
REMARK   67  A    between atoms: _155  and  _156
REMARK   68  A    between atoms: _155  and  _158
REMARK   69  A    between atoms: _158  and  _159
REMARK   70  A    between atoms: _162  and  _164
REMARK   71  A    between atoms: _164  and  _165
REMARK   72  A    between atoms: _164  and  _167
REMARK   73  A    between atoms: _167  and  _168
REMARK   74  A    between atoms: _178  and  _180
REMARK   75  A    between atoms: _180  and  _181
REMARK   76  A    between atoms: _180  and  _183
REMARK   77  A    between atoms: _183  and  _184
REMARK   78  A    between atoms: _184  and  _185
REMARK   79  A    between atoms: _187  and  _189
REMARK   80  A    between atoms: _189  and  _190
REMARK   81  A    between atoms: _189  and  _192
REMARK   82  A    between atoms: _192  and  _193
REMARK   83  A    between atoms: _195  and  _197
REMARK   84  A    between atoms: _197  and  _198
REMARK   85  A    between atoms: _197  and  _200
REMARK   86  A    between atoms: _200  and  _201
REMARK   87  A    between atoms: _204  and  _206
REMARK   88  A    between atoms: _206  and  _207
REMARK   89  A    between atoms: _206  and  _209
REMARK   90  A    between atoms: _209  and  _210
REMARK   91  A    between atoms: _210  and  _211
REMARK   92  A    between atoms: _213  and  _215
REMARK   93  A    between atoms: _215  and  _216
REMARK   94  A    between atoms: _215  and  _218
REMARK   95  A    between atoms: _221  and  _223
REMARK   96  A    between atoms: _223  and  _224
REMARK   97  A    between atoms: _223  and  _226
REMARK   98  A    between atoms: _226  and  _227
REMARK   99  A    between atoms: _233  and  _235
REMARK  100  A    between atoms: _235  and  _236
REMARK  101  A    between atoms: _238  and  _240
REMARK  102  A    between atoms: _240  and  _241
REMARK  103  A    between atoms: _240  and  _243
REMARK  104  A    between atoms: _243  and  _244
REMARK  105  A    between atoms: _247  and  _249
REMARK  106  A    between atoms: _249  and  _250
REMARK  107  A    between atoms: _252  and  _254
REMARK  108  A    between atoms: _254  and  _255
REMARK  109  A    between atoms: _254  and  _257
REMARK  110  A    between atoms: _257  and  _258
REMARK  111  A    between atoms: _258  and  _259
REMARK  112  A    between atoms: _259  and  _260
REMARK  113  A    between atoms: _269  and  _271
REMARK  114  A    between atoms: _271  and  _272
REMARK  115  A    between atoms: _271  and  _274
REMARK  116  A    between atoms: _274  and  _275
REMARK  117  A    between atoms: _277  and  _279
REMARK  118  A    between atoms: _279  and  _280
REMARK  119  A    between atoms: _279  and  _282
REMARK  120  A    between atoms: _282  and  _283
REMARK  121  A    between atoms: _288  and  _289
REMARK  122  A    between atoms: _291  and  _293
REMARK  123  A    between atoms: _293  and  _294
REMARK  124  A    between atoms: _293  and  _296
REMARK  125  A    between atoms: _296  and  _297
REMARK  126  A    between atoms: _303  and  _305
REMARK  127  A    between atoms: _305  and  _306
REMARK  128  A    between atoms: _309  and  _311
REMARK  129  A    between atoms: _311  and  _312
REMARK  130  A    between atoms: _311  and  _314
REMARK  131  A    between atoms: _314  and  _315
REMARK  132  A    between atoms: _318  and  _320
REMARK  133  A    between atoms: _320  and  _321
REMARK  134  A    between atoms: _320  and  _323
REMARK  135  A    between atoms: _323  and  _324
REMARK  136  A    between atoms: _327  and  _329
REMARK  137  A    between atoms: _329  and  _330
REMARK  138  A    between atoms: _329  and  _332
REMARK  139  A    between atoms: _332  and  _333
REMARK  140  A    between atoms: _335  and  _337
REMARK  141  A    between atoms: _337  and  _338
REMARK  142  A    between atoms: _337  and  _340
REMARK  143  A    between atoms: _340  and  _341
REMARK  144  A    between atoms: _343  and  _345
REMARK  145  A    between atoms: _345  and  _346
REMARK  146  A    between atoms: _345  and  _348
REMARK  147  A    between atoms: _348  and  _349
REMARK  148  A    between atoms: _355  and  _357
REMARK  149  A    between atoms: _357  and  _358
REMARK  150  A    between atoms: _357  and  _360
REMARK  151  A    between atoms: _360  and  _361
REMARK  152  A    between atoms: _366  and  _367
REMARK  153  A    between atoms: _369  and  _371
REMARK  154  A    between atoms: _371  and  _372
REMARK  155  A    between atoms: _371  and  _374
REMARK  156  A    between atoms: _374  and  _375
REMARK  157  A    between atoms: _378  and  _380
REMARK  158  A    between atoms: _380  and  _381
REMARK  159  A    between atoms: _380  and  _383
REMARK  160  A    between atoms: _385  and  _387
REMARK  161  A    between atoms: _387  and  _388
REMARK  162  A    between atoms: _387  and  _390
REMARK  163  A    between atoms: _390  and  _391
REMARK  164  A    between atoms: _391  and  _392
REMARK  165  A    between atoms: _394  and  _396
REMARK  166  A    between atoms: _396  and  _397
REMARK  167  A    between atoms: _396  and  _399
REMARK  168  A    between atoms: _399  and  _400
REMARK  169  A    between atoms: _403  and  _405
REMARK  170  A    between atoms: _405  and  _406
REMARK  171  A    between atoms: _405  and  _408
REMARK  172  A    between atoms: _411  and  _413
REMARK  173  A    between atoms: _413  and  _414
REMARK  174  A    between atoms: _413  and  _416
REMARK  175  A    between atoms: _416  and  _417
REMARK  176  A    between atoms: _417  and  _418
REMARK  177  A    between atoms: _423  and  _425
REMARK  178  A    between atoms: _425  and  _426
REMARK  179  A    between atoms: _425  and  _428
REMARK  180  A    between atoms: _428  and  _429
REMARK  181  A    between atoms: _432  and  _434
REMARK  182  A    between atoms: _434  and  _435
REMARK  183  A    between atoms: _434  and  _437
REMARK  184  A    between atoms: _437  and  _438
REMARK  185  A    between atoms: _443  and  _445
REMARK  186  A    between atoms: _445  and  _446
REMARK  187  A    between atoms: _445  and  _448
REMARK  188  A    between atoms: _448  and  _449
REMARK  189  A    between atoms: _452  and  _454
REMARK  190  A    between atoms: _454  and  _455
REMARK  191  A    between atoms: _454  and  _457
REMARK  192  A    between atoms: _457  and  _458
REMARK  193  A    between atoms: _463  and  _464
REMARK  194  A    between atoms: _466  and  _468
REMARK  195  A    between atoms: _468  and  _469
REMARK  196  A    between atoms: _468  and  _471
REMARK  197  A    between atoms: _473  and  _475
REMARK  198  A    between atoms: _475  and  _476
REMARK  199  A    between atoms: _475  and  _478
REMARK  200  A    between atoms: _478  and  _479
REMARK  201  A    between atoms: _482  and  _484
REMARK  202  A    between atoms: _484  and  _485
REMARK  203  A    between atoms: _484  and  _487
REMARK  204  A    between atoms: _487  and  _488
REMARK  205  A    between atoms: _493  and  _495
REMARK  206  A    between atoms: _495  and  _496
REMARK  207  A    between atoms: _495  and  _498
REMARK  208  A    between atoms: _498  and  _499
REMARK  209  A    between atoms: _502  and  _504
REMARK  210  A    between atoms: _504  and  _505
REMARK  211  A    between atoms: _504  and  _507
REMARK  212  A    between atoms: _507  and  _508
REMARK  213  A    between atoms: _514  and  _516
REMARK  214  A    between atoms: _516  and  _517
REMARK  215  A    between atoms: _516  and  _519
REMARK  216  A    between atoms: _522  and  _524
REMARK  217  A    between atoms: _524  and  _525
REMARK  218  A    between atoms: _524  and  _527
REMARK  219  A    between atoms: _527  and  _528
REMARK  220  A    between atoms: _528  and  _529
REMARK  221  A    between atoms: _532  and  _534
REMARK  222  A    between atoms: _534  and  _535
REMARK  223  A    between atoms: _534  and  _537
REMARK  224  A    between atoms: _537  and  _538
REMARK  225  A    between atoms: _545  and  _546
REMARK  226  A    between atoms: _551  and  _553
REMARK  227  A    between atoms: _553  and  _554
REMARK  228  A    between atoms: _553  and  _556
REMARK  229  A    between atoms: _556  and  _557
REMARK  230  A    between atoms: _557  and  _558
REMARK  231  A    between atoms: _561  and  _563
REMARK  232  A    between atoms: _563  and  _564
REMARK  233  A    between atoms: _563  and  _566
REMARK  234  A    between atoms: _566  and  _567
REMARK  235  A    between atoms: _567  and  _568
REMARK  236  A    between atoms: _570  and  _572
REMARK  237  A    between atoms: _572  and  _573
REMARK  238  A    between atoms: _572  and  _575
REMARK  239  A    between atoms: _575  and  _576
REMARK  240  A    between atoms: _576  and  _577
REMARK  241  A    between atoms: _579  and  _581
REMARK  242  A    between atoms: _581  and  _582
REMARK  243  A    between atoms: _581  and  _584
REMARK  244  A    between atoms: _584  and  _585
REMARK  245  A    between atoms: _587  and  _589
REMARK  246  A    between atoms: _589  and  _590
REMARK  247  A    between atoms: _589  and  _592
REMARK  248  A    between atoms: _592  and  _593
REMARK  249  A    between atoms: _593  and  _594
REMARK  250  A    between atoms: _597  and  _599
REMARK  251  A    between atoms: _599  and  _600
REMARK  252  A    between atoms: _599  and  _602
REMARK  253  A    between atoms: _605  and  _607
REMARK  254  A    between atoms: _607  and  _608
REMARK  255  A    between atoms: _607  and  _610
REMARK  256  A    between atoms: _610  and  _611
REMARK  257  A    between atoms: _614  and  _616
REMARK  258  A    between atoms: _616  and  _617
REMARK  259  A    between atoms: _616  and  _619
REMARK  260  A    between atoms: _619  and  _620
REMARK                            x       y       z     vdW  Elec       q    Type
REMARK                         _______ _______ _______ _____ _____    ______ ____
ROOT
ATOM      1  C   TYR A   1      16.935  12.496   2.728  0.00  0.00    +0.239 C 
ATOM      2  N   PHE A   2      15.859  12.521   3.519  0.00  0.00    -0.297 N 
ATOM      3  H   PHE A   2      15.815  13.215   4.292  0.00  0.00    +0.150 HD
ATOM      4  O   TYR A   1      17.088  11.657   1.855  0.00  0.00    -0.274 OA
ENDROOT
BRANCH   1   5
ATOM      5  CA  TYR A   1      18.016  13.549   3.005  0.00  0.00    +0.149 C 
BRANCH   5   6
ATOM      6  N   TYR A   1      18.754  13.133   4.188  0.00  0.00    -0.238 NA
ATOM      7  H   TYR A   1      19.522  12.442   4.070  0.00  0.00    +0.142 HD
ENDBRANCH   5   6
BRANCH   5   8
ATOM      8  CB  TYR A   1      18.990  13.715   1.819  0.00  0.00    +0.053 C 
BRANCH   8   9
ATOM      9  CG  TYR A   1      18.453  14.508   0.637  0.00  0.00    -0.020 A 
ATOM     10  CD2 TYR A   1      18.848  15.823   0.414  0.00  0.00    -0.001 A 
ATOM     11  CE2 TYR A   1      18.349  16.549  -0.674  0.00  0.00    +0.036 A 
ATOM     12  CZ  TYR A   1      17.454  15.946  -1.545  0.00  0.00    +0.134 A 
ATOM     13  CE1 TYR A   1      17.049  14.648  -1.337  0.00  0.00    +0.036 A 
ATOM     14  CD1 TYR A   1      17.549  13.939  -0.256  0.00  0.00    -0.001 A 
BRANCH  12  15
ATOM     15  OH  TYR A   1      16.947  16.628  -2.622  0.00  0.00    -0.506 OA
ATOM     16  HH  TYR A   1      16.330  16.038  -3.124  0.00  0.00    +0.292 HD
ENDBRANCH  12  15
ENDBRANCH   8   9
ENDBRANCH   5   8
ENDBRANCH   1   5
BRANCH   2  17
ATOM     17  CA  PHE A   2      14.730  11.589   3.324  0.00  0.00    +0.153 C 
BRANCH  17  18
ATOM     18  C   PHE A   2      14.071  11.837   1.977  0.00  0.00    +0.241 C 
ATOM     19  N   ALA A   3      13.821  13.111   1.700  0.00  0.00    -0.298 N 
ATOM     20  H   ALA A   3      14.010  13.820   2.437  0.00  0.00    +0.150 HD
ATOM     21  O   PHE A   2      13.800  10.900   1.213  0.00  0.00    -0.273 OA
BRANCH  19  22
ATOM     22  CA  ALA A   3      13.295  13.573   0.418  0.00  0.00    +0.137 C 
ATOM     23  CB  ALA A   3      11.764  13.441   0.392  0.00  0.00    +0.030 C 
BRANCH  22  24
ATOM     24  C   ALA A   3      13.699  15.035   0.238  0.00  0.00    +0.227 C 
ATOM     25  O   ALA A   3      14.189  15.656   1.195  0.00  0.00    -0.286 OA
ENDBRANCH  22  24
ENDBRANCH  19  22
ENDBRANCH  17  18
BRANCH  17  26
ATOM     26  CB  PHE A   2      13.696  11.741   4.444  0.00  0.00    +0.055 C 
BRANCH  26  27
ATOM     27  CG  PHE A   2      14.175  11.247   5.773  0.00  0.00    -0.020 A 
ATOM     28  CD2 PHE A   2      14.649  12.128   6.739  0.00  0.00    -0.004 A 
ATOM     29  CE2 PHE A   2      15.100  11.655   7.975  0.00  0.00    -0.000 A 
ATOM     30  CZ  PHE A   2      15.069  10.301   8.242  0.00  0.00    -0.000 A 
ATOM     31  CE1 PHE A   2      14.591   9.424   7.289  0.00  0.00    -0.000 A 
ATOM     32  CD1 PHE A   2      14.150   9.896   6.063  0.00  0.00    -0.004 A 
ENDBRANCH  26  27
ENDBRANCH  17  26
ENDBRANCH   2  17
TORSDOF 11
REMARK  Name = ../refined-set-2016/2w8y/2w8y_pocket.pdb
REMARK  260 active torsions:
REMARK  status: ('A' for Active; 'I' for Inactive)
REMARK    1  A    between atoms: _1  and  _3
REMARK    2  A    between atoms: _3  and  _4
REMARK    3  A    between atoms: _3  and  _6
REMARK    4  A    between atoms: _6  and  _7
REMARK    5  A    between atoms: _10  and  _12
REMARK    6  A    between atoms: _12  and  _13
REMARK    7  A    between atoms: _16  and  _18
REMARK    8  A    between atoms: _18  and  _19
REMARK    9  A    between atoms: _18  and  _21
REMARK   10  A    between atoms: _21  and  _22
REMARK   11  A    between atoms: _24  and  _26
REMARK   12  A    between atoms: _26  and  _27
REMARK   13  A    between atoms: _26  and  _29
REMARK   14  A    between atoms: _29  and  _30
REMARK   15  A    between atoms: _33  and  _35
REMARK   16  A    between atoms: _35  and  _36
REMARK   17  A    between atoms: _35  and  _38
REMARK   18  A    between atoms: _38  and  _39
REMARK   19  A    between atoms: _42  and  _44
REMARK   20  A    between atoms: _44  and  _45
REMARK   21  A    between atoms: _44  and  _47
REMARK   22  A    between atoms: _47  and  _48
REMARK   23  A    between atoms: _51  and  _53
REMARK   24  A    between atoms: _53  and  _54
REMARK   25  A    between atoms: _53  and  _56
REMARK   26  A    between atoms: _56  and  _57
REMARK   27  A    between atoms: _59  and  _61
REMARK   28  A    between atoms: _61  and  _62
REMARK   29  A    between atoms: _61  and  _64
REMARK   30  A    between atoms: _64  and  _65
REMARK   31  A    between atoms: _68  and  _70
REMARK   32  A    between atoms: _70  and  _71
REMARK   33  A    between atoms: _70  and  _73
REMARK   34  A    between atoms: _73  and  _74
REMARK   35  A    between atoms: _79  and  _81
REMARK   36  A    between atoms: _81  and  _82
REMARK   37  A    between atoms: _81  and  _84
REMARK   38  A    between atoms: _84  and  _85
REMARK   39  A    between atoms: _85  and  _86
REMARK   40  A    between atoms: _91  and  _93
REMARK   41  A    between atoms: _93  and  _94
REMARK   42  A    between atoms: _93  and  _96
REMARK   43  A    between atoms: _96  and  _97
REMARK   44  A    between atoms: _100  and  _102
REMARK   45  A    between atoms: _102  and  _103
REMARK   46  A    between atoms: _105  and  _107
REMARK   47  A    between atoms: _107  and  _108
REMARK   48  A    between atoms: _107  and  _110
REMARK   49  A    between atoms: _110  and  _111
REMARK   50  A    between atoms: _111  and  _112
REMARK   51  A    between atoms: _115  and  _117
REMARK   52  A    between atoms: _117  and  _118
REMARK   53  A    between atoms: _117  and  _120
REMARK   54  A    between atoms: _120  and  _121
REMARK   55  A    between atoms: _121  and  _122
REMARK   56  A    between atoms: _122  and  _123
REMARK   57  A    between atoms: _132  and  _134
REMARK   58  A    between atoms: _134  and  _135
REMARK   59  A    between atoms: _134  and  _137
REMARK   60  A    between atoms: _137  and  _138
REMARK   61  A    between atoms: _138  and  _139
REMARK   62  A    between atoms: _144  and  _146
REMARK   63  A    between atoms: _146  and  _147
REMARK   64  A    between atoms: _146  and  _149
REMARK   65  A    between atoms: _149  and  _150
REMARK   66  A    between atoms: _153  and  _155
REMARK   67  A    between atoms: _155  and  _156
REMARK   68  A    between atoms: _155  and  _158
REMARK   69  A    between atoms: _158  and  _159
REMARK   70  A    between atoms: _162  and  _164
REMARK   71  A    between atoms: _164  and  _165
REMARK   72  A    between atoms: _164  and  _167
REMARK   73  A    between atoms: _167  and  _168
REMARK   74  A    between atoms: _178  and  _180
REMARK   75  A    between atoms: _180  and  _181
REMARK   76  A    between atoms: _180  and  _183
REMARK   77  A    between atoms: _183  and  _184
REMARK   78  A    between atoms: _184  and  _185
REMARK   79  A    between atoms: _187  and  _189
REMARK   80  A    between atoms: _189  and  _190
REMARK   81  A    between atoms: _189  and  _192
REMARK   82  A    between atoms: _192  and  _193
REMARK   83  A    between atoms: _195  and  _197
REMARK   84  A    between atoms: _197  and  _198
REMARK   85  A    between atoms: _197  and  _200
REMARK   86  A    between atoms: _200  and  _201
REMARK   87  A    between atoms: _204  and  _206
REMARK   88  A    between atoms: _206  and  _207
REMARK   89  A    between atoms: _206  and  _209
REMARK   90  A    between atoms: _209  and  _210
REMARK   91  A    between atoms: _210  and  _211
REMARK   92  A    between atoms: _213  and  _215
REMARK   93  A    between atoms: _215  and  _216
REMARK   94  A    between atoms: _215  and  _218
REMARK   95  A    between atoms: _221  and  _223
REMARK   96  A    between atoms: _223  and  _224
REMARK   97  A    between atoms: _223  and  _226
REMARK   98  A    between atoms: _226  and  _227
REMARK   99  A    between atoms: _233  and  _235
REMARK  100  A    between atoms: _235  and  _236
REMARK  101  A    between atoms: _238  and  _240
REMARK  102  A    between atoms: _240  and  _241
REMARK  103  A    between atoms: _240  and  _243
REMARK  104  A    between atoms: _243  and  _244
REMARK  105  A    between atoms: _247  and  _249
REMARK  106  A    between atoms: _249  and  _250
REMARK  107  A    between atoms: _252  and  _254
REMARK  108  A    between atoms: _254  and  _255
REMARK  109  A    between atoms: _254  and  _257
REMARK  110  A    between atoms: _257  and  _258
REMARK  111  A    between atoms: _258  and  _259
REMARK  112  A    between atoms: _259  and  _260
REMARK  113  A    between atoms: _269  and  _271
REMARK  114  A    between atoms: _271  and  _272
REMARK  115  A    between atoms: _271  and  _274
REMARK  116  A    between atoms: _274  and  _275
REMARK  117  A    between atoms: _277  and  _279
REMARK  118  A    between atoms: _279  and  _280
REMARK  119  A    between atoms: _279  and  _282
REMARK  120  A    between atoms: _282  and  _283
REMARK  121  A    between atoms: _288  and  _289
REMARK  122  A    between atoms: _291  and  _293
REMARK  123  A    between atoms: _293  and  _294
REMARK  124  A    between atoms: _293  and  _296
REMARK  125  A    between atoms: _296  and  _297
REMARK  126  A    between atoms: _303  and  _305
REMARK  127  A    between atoms: _305  and  _306
REMARK  128  A    between atoms: _309  and  _311
REMARK  129  A    between atoms: _311  and  _312
REMARK  130  A    between atoms: _311  and  _314
REMARK  131  A    between atoms: _314  and  _315
REMARK  132  A    between atoms: _318  and  _320
REMARK  133  A    between atoms: _320  and  _321
REMARK  134  A    between atoms: _320  and  _323
REMARK  135  A    between atoms: _323  and  _324
REMARK  136  A    between atoms: _327  and  _329
REMARK  137  A    between atoms: _329  and  _330
REMARK  138  A    between atoms: _329  and  _332
REMARK  139  A    between atoms: _332  and  _333
REMARK  140  A    between atoms: _335  and  _337
REMARK  141  A    between atoms: _337  and  _338
REMARK  142  A    between atoms: _337  and  _340
REMARK  143  A    between atoms: _340  and  _341
REMARK  144  A    between atoms: _343  and  _345
REMARK  145  A    between atoms: _345  and  _346
REMARK  146  A    between atoms: _345  and  _348
REMARK  147  A    between atoms: _348  and  _349
REMARK  148  A    between atoms: _355  and  _357
REMARK  149  A    between atoms: _357  and  _358
REMARK  150  A    between atoms: _357  and  _360
REMARK  151  A    between atoms: _360  and  _361
REMARK  152  A    between atoms: _366  and  _367
REMARK  153  A    between atoms: _369  and  _371
REMARK  154  A    between atoms: _371  and  _372
REMARK  155  A    between atoms: _371  and  _374
REMARK  156  A    between atoms: _374  and  _375
REMARK  157  A    between atoms: _378  and  _380
REMARK  158  A    between atoms: _380  and  _381
REMARK  159  A    between atoms: _380  and  _383
REMARK  160  A    between atoms: _385  and  _387
REMARK  161  A    between atoms: _387  and  _388
REMARK  162  A    between atoms: _387  and  _390
REMARK  163  A    between atoms: _390  and  _391
REMARK  164  A    between atoms: _391  and  _392
REMARK  165  A    between atoms: _394  and  _396
REMARK  166  A    between atoms: _396  and  _397
REMARK  167  A    between atoms: _396  and  _399
REMARK  168  A    between atoms: _399  and  _400
REMARK  169  A    between atoms: _403  and  _405
REMARK  170  A    between atoms: _405  and  _406
REMARK  171  A    between atoms: _405  and  _408
REMARK  172  A    between atoms: _411  and  _413
REMARK  173  A    between atoms: _413  and  _414
REMARK  174  A    between atoms: _413  and  _416
REMARK  175  A    between atoms: _416  and  _417
REMARK  176  A    between atoms: _417  and  _418
REMARK  177  A    between atoms: _423  and  _425
REMARK  178  A    between atoms: _425  and  _426
REMARK  179  A    between atoms: _425  and  _428
REMARK  180  A    between atoms: _428  and  _429
REMARK  181  A    between atoms: _432  and  _434
REMARK  182  A    between atoms: _434  and  _435
REMARK  183  A    between atoms: _434  and  _437
REMARK  184  A    between atoms: _437  and  _438
REMARK  185  A    between atoms: _443  and  _445
REMARK  186  A    between atoms: _445  and  _446
REMARK  187  A    between atoms: _445  and  _448
REMARK  188  A    between atoms: _448  and  _449
REMARK  189  A    between atoms: _452  and  _454
REMARK  190  A    between atoms: _454  and  _455
REMARK  191  A    between atoms: _454  and  _457
REMARK  192  A    between atoms: _457  and  _458
REMARK  193  A    between atoms: _463  and  _464
REMARK  194  A    between atoms: _466  and  _468
REMARK  195  A    between atoms: _468  and  _469
REMARK  196  A    between atoms: _468  and  _471
REMARK  197  A    between atoms: _473  and  _475
REMARK  198  A    between atoms: _475  and  _476
REMARK  199  A    between atoms: _475  and  _478
REMARK  200  A    between atoms: _478  and  _479
REMARK  201  A    between atoms: _482  and  _484
REMARK  202  A    between atoms: _484  and  _485
REMARK  203  A    between atoms: _484  and  _487
REMARK  204  A    between atoms: _487  and  _488
REMARK  205  A    between atoms: _493  and  _495
REMARK  206  A    between atoms: _495  and  _496
REMARK  207  A    between atoms: _495  and  _498
REMARK  208  A    between atoms: _498  and  _499
REMARK  209  A    between atoms: _502  and  _504
REMARK  210  A    between atoms: _504  and  _505
REMARK  211  A    between atoms: _504  and  _507
REMARK  212  A    between atoms: _507  and  _508
REMARK  213  A    between atoms: _514  and  _516
REMARK  214  A    between atoms: _516  and  _517
REMARK  215  A    between atoms: _516  and  _519
REMARK  216  A    between atoms: _522  and  _524
REMARK  217  A    between atoms: _524  and  _525
REMARK  218  A    between atoms: _524  and  _527
REMARK  219  A    between atoms: _527  and  _528
REMARK  220  A    between atoms: _528  and  _529
REMARK  221  A    between atoms: _532  and  _534
REMARK  222  A    between atoms: _534  and  _535
REMARK  223  A    between atoms: _534  and  _537
REMARK  224  A    between atoms: _537  and  _538
REMARK  225  A    between atoms: _545  and  _546
REMARK  226  A    between atoms: _551  and  _553
REMARK  227  A    between atoms: _553  and  _554
REMARK  228  A    between atoms: _553  and  _556
REMARK  229  A    between atoms: _556  and  _557
REMARK  230  A    between atoms: _557  and  _558
REMARK  231  A    between atoms: _561  and  _563
REMARK  232  A    between atoms: _563  and  _564
REMARK  233  A    between atoms: _563  and  _566
REMARK  234  A    between atoms: _566  and  _567
REMARK  235  A    between atoms: _567  and  _568
REMARK  236  A    between atoms: _570  and  _572
REMARK  237  A    between atoms: _572  and  _573
REMARK  238  A    between atoms: _572  and  _575
REMARK  239  A    between atoms: _575  and  _576
REMARK  240  A    between atoms: _576  and  _577
REMARK  241  A    between atoms: _579  and  _581
REMARK  242  A    between atoms: _581  and  _582
REMARK  243  A    between atoms: _581  and  _584
REMARK  244  A    between atoms: _584  and  _585
REMARK  245  A    between atoms: _587  and  _589
REMARK  246  A    between atoms: _589  and  _590
REMARK  247  A    between atoms: _589  and  _592
REMARK  248  A    between atoms: _592  and  _593
REMARK  249  A    between atoms: _593  and  _594
REMARK  250  A    between atoms: _597  and  _599
REMARK  251  A    between atoms: _599  and  _600
REMARK  252  A    between atoms: _599  and  _602
REMARK  253  A    between atoms: _605  and  _607
REMARK  254  A    between atoms: _607  and  _608
REMARK  255  A    between atoms: _607  and  _610
REMARK  256  A    between atoms: _610  and  _611
REMARK  257  A    between atoms: _614  and  _616
REMARK  258  A    between atoms: _616  and  _617
REMARK  259  A    between atoms: _616  and  _619
REMARK  260  A    between atoms: _619  and  _620
REMARK                            x       y       z     vdW  Elec       q    Type
REMARK                         _______ _______ _______ _____ _____    ______ ____
ROOT
ATOM      1  CA  LEU A   1      12.047  16.372   4.123  0.00  0.00    +0.133 C 
ENDROOT
BRANCH   1   2
ATOM      2  N   LEU A   1      11.860  16.857   2.756  0.00  0.00    -0.239 NA
ATOM      3  H   LEU A   1      12.454  16.470   1.995  0.00  0.00    +0.142 HD
ENDBRANCH   1   2
BRANCH   1   4
ATOM      4  C   LEU A   1      13.539  16.090   4.341  0.00  0.00    +0.224 C 
ATOM      5  O   LEU A   1      14.023  14.969   4.136  0.00  0.00    -0.287 OA
ENDBRANCH   1   4
BRANCH   1   6
ATOM      6  CB  LEU A   1      11.167  15.137   4.394  0.00  0.00    +0.025 C 
BRANCH   6   7
ATOM      7  CG  LEU A   1      11.070  14.647   5.849  0.00  0.00    +0.002 C 
ATOM      8  CD2 LEU A   1      10.458  15.714   6.773  0.00  0.00    +0.000 C 
ATOM      9  CD1 LEU A   1      10.285  13.363   5.935  0.00  0.00    +0.000 C 
ENDBRANCH   6   7
ENDBRANCH   1   6
TORSDOF 4
REMARK  Name = ../refined-set-2016/2w8y/2w8y_pocket.pdb
REMARK  260 active torsions:
REMARK  status: ('A' for Active; 'I' for Inactive)
REMARK    1  A    between atoms: _1  and  _3
REMARK    2  A    between atoms: _3  and  _4
REMARK    3  A    between atoms: _3  and  _6
REMARK    4  A    between atoms: _6  and  _7
REMARK    5  A    between atoms: _10  and  _12
REMARK    6  A    between atoms: _12  and  _13
REMARK    7  A    between atoms: _16  and  _18
REMARK    8  A    between atoms: _18  and  _19
REMARK    9  A    between atoms: _18  and  _21
REMARK   10  A    between atoms: _21  and  _22
REMARK   11  A    between atoms: _24  and  _26
REMARK   12  A    between atoms: _26  and  _27
REMARK   13  A    between atoms: _26  and  _29
REMARK   14  A    between atoms: _29  and  _30
REMARK   15  A    between atoms: _33  and  _35
REMARK   16  A    between atoms: _35  and  _36
REMARK   17  A    between atoms: _35  and  _38
REMARK   18  A    between atoms: _38  and  _39
REMARK   19  A    between atoms: _42  and  _44
REMARK   20  A    between atoms: _44  and  _45
REMARK   21  A    between atoms: _44  and  _47
REMARK   22  A    between atoms: _47  and  _48
REMARK   23  A    between atoms: _51  and  _53
REMARK   24  A    between atoms: _53  and  _54
REMARK   25  A    between atoms: _53  and  _56
REMARK   26  A    between atoms: _56  and  _57
REMARK   27  A    between atoms: _59  and  _61
REMARK   28  A    between atoms: _61  and  _62
REMARK   29  A    between atoms: _61  and  _64
REMARK   30  A    between atoms: _64  and  _65
REMARK   31  A    between atoms: _68  and  _70
REMARK   32  A    between atoms: _70  and  _71
REMARK   33  A    between atoms: _70  and  _73
REMARK   34  A    between atoms: _73  and  _74
REMARK   35  A    between atoms: _79  and  _81
REMARK   36  A    between atoms: _81  and  _82
REMARK   37  A    between atoms: _81  and  _84
REMARK   38  A    between atoms: _84  and  _85
REMARK   39  A    between atoms: _85  and  _86
REMARK   40  A    between atoms: _91  and  _93
REMARK   41  A    between atoms: _93  and  _94
REMARK   42  A    between atoms: _93  and  _96
REMARK   43  A    between atoms: _96  and  _97
REMARK   44  A    between atoms: _100  and  _102
REMARK   45  A    between atoms: _102  and  _103
REMARK   46  A    between atoms: _105  and  _107
REMARK   47  A    between atoms: _107  and  _108
REMARK   48  A    between atoms: _107  and  _110
REMARK   49  A    between atoms: _110  and  _111
REMARK   50  A    between atoms: _111  and  _112
REMARK   51  A    between atoms: _115  and  _117
REMARK   52  A    between atoms: _117  and  _118
REMARK   53  A    between atoms: _117  and  _120
REMARK   54  A    between atoms: _120  and  _121
REMARK   55  A    between atoms: _121  and  _122
REMARK   56  A    between atoms: _122  and  _123
REMARK   57  A    between atoms: _132  and  _134
REMARK   58  A    between atoms: _134  and  _135
REMARK   59  A    between atoms: _134  and  _137
REMARK   60  A    between atoms: _137  and  _138
REMARK   61  A    between atoms: _138  and  _139
REMARK   62  A    between atoms: _144  and  _146
REMARK   63  A    between atoms: _146  and  _147
REMARK   64  A    between atoms: _146  and  _149
REMARK   65  A    between atoms: _149  and  _150
REMARK   66  A    between atoms: _153  and  _155
REMARK   67  A    between atoms: _155  and  _156
REMARK   68  A    between atoms: _155  and  _158
REMARK   69  A    between atoms: _158  and  _159
REMARK   70  A    between atoms: _162  and  _164
REMARK   71  A    between atoms: _164  and  _165
REMARK   72  A    between atoms: _164  and  _167
REMARK   73  A    between atoms: _167  and  _168
REMARK   74  A    between atoms: _178  and  _180
REMARK   75  A    between atoms: _180  and  _181
REMARK   76  A    between atoms: _180  and  _183
REMARK   77  A    between atoms: _183  and  _184
REMARK   78  A    between atoms: _184  and  _185
REMARK   79  A    between atoms: _187  and  _189
REMARK   80  A    between atoms: _189  and  _190
REMARK   81  A    between atoms: _189  and  _192
REMARK   82  A    between atoms: _192  and  _193
REMARK   83  A    between atoms: _195  and  _197
REMARK   84  A    between atoms: _197  and  _198
REMARK   85  A    between atoms: _197  and  _200
REMARK   86  A    between atoms: _200  and  _201
REMARK   87  A    between atoms: _204  and  _206
REMARK   88  A    between atoms: _206  and  _207
REMARK   89  A    between atoms: _206  and  _209
REMARK   90  A    between atoms: _209  and  _210
REMARK   91  A    between atoms: _210  and  _211
REMARK   92  A    between atoms: _213  and  _215
REMARK   93  A    between atoms: _215  and  _216
REMARK   94  A    between atoms: _215  and  _218
REMARK   95  A    between atoms: _221  and  _223
REMARK   96  A    between atoms: _223  and  _224
REMARK   97  A    between atoms: _223  and  _226
REMARK   98  A    between atoms: _226  and  _227
REMARK   99  A    between atoms: _233  and  _235
REMARK  100  A    between atoms: _235  and  _236
REMARK  101  A    between atoms: _238  and  _240
REMARK  102  A    between atoms: _240  and  _241
REMARK  103  A    between atoms: _240  and  _243
REMARK  104  A    between atoms: _243  and  _244
REMARK  105  A    between atoms: _247  and  _249
REMARK  106  A    between atoms: _249  and  _250
REMARK  107  A    between atoms: _252  and  _254
REMARK  108  A    between atoms: _254  and  _255
REMARK  109  A    between atoms: _254  and  _257
REMARK  110  A    between atoms: _257  and  _258
REMARK  111  A    between atoms: _258  and  _259
REMARK  112  A    between atoms: _259  and  _260
REMARK  113  A    between atoms: _269  and  _271
REMARK  114  A    between atoms: _271  and  _272
REMARK  115  A    between atoms: _271  and  _274
REMARK  116  A    between atoms: _274  and  _275
REMARK  117  A    between atoms: _277  and  _279
REMARK  118  A    between atoms: _279  and  _280
REMARK  119  A    between atoms: _279  and  _282
REMARK  120  A    between atoms: _282  and  _283
REMARK  121  A    between atoms: _288  and  _289
REMARK  122  A    between atoms: _291  and  _293
REMARK  123  A    between atoms: _293  and  _294
REMARK  124  A    between atoms: _293  and  _296
REMARK  125  A    between atoms: _296  and  _297
REMARK  126  A    between atoms: _303  and  _305
REMARK  127  A    between atoms: _305  and  _306
REMARK  128  A    between atoms: _309  and  _311
REMARK  129  A    between atoms: _311  and  _312
REMARK  130  A    between atoms: _311  and  _314
REMARK  131  A    between atoms: _314  and  _315
REMARK  132  A    between atoms: _318  and  _320
REMARK  133  A    between atoms: _320  and  _321
REMARK  134  A    between atoms: _320  and  _323
REMARK  135  A    between atoms: _323  and  _324
REMARK  136  A    between atoms: _327  and  _329
REMARK  137  A    between atoms: _329  and  _330
REMARK  138  A    between atoms: _329  and  _332
REMARK  139  A    between atoms: _332  and  _333
REMARK  140  A    between atoms: _335  and  _337
REMARK  141  A    between atoms: _337  and  _338
REMARK  142  A    between atoms: _337  and  _340
REMARK  143  A    between atoms: _340  and  _341
REMARK  144  A    between atoms: _343  and  _345
REMARK  145  A    between atoms: _345  and  _346
REMARK  146  A    between atoms: _345  and  _348
REMARK  147  A    between atoms: _348  and  _349
REMARK  148  A    between atoms: _355  and  _357
REMARK  149  A    between atoms: _357  and  _358
REMARK  150  A    between atoms: _357  and  _360
REMARK  151  A    between atoms: _360  and  _361
REMARK  152  A    between atoms: _366  and  _367
REMARK  153  A    between atoms: _369  and  _371
REMARK  154  A    between atoms: _371  and  _372
REMARK  155  A    between atoms: _371  and  _374
REMARK  156  A    between atoms: _374  and  _375
REMARK  157  A    between atoms: _378  and  _380
REMARK  158  A    between atoms: _380  and  _381
REMARK  159  A    between atoms: _380  and  _383
REMARK  160  A    between atoms: _385  and  _387
REMARK  161  A    between atoms: _387  and  _388
REMARK  162  A    between atoms: _387  and  _390
REMARK  163  A    between atoms: _390  and  _391
REMARK  164  A    between atoms: _391  and  _392
REMARK  165  A    between atoms: _394  and  _396
REMARK  166  A    between atoms: _396  and  _397
REMARK  167  A    between atoms: _396  and  _399
REMARK  168  A    between atoms: _399  and  _400
REMARK  169  A    between atoms: _403  and  _405
REMARK  170  A    between atoms: _405  and  _406
REMARK  171  A    between atoms: _405  and  _408
REMARK  172  A    between atoms: _411  and  _413
REMARK  173  A    between atoms: _413  and  _414
REMARK  174  A    between atoms: _413  and  _416
REMARK  175  A    between atoms: _416  and  _417
REMARK  176  A    between atoms: _417  and  _418
REMARK  177  A    between atoms: _423  and  _425
REMARK  178  A    between atoms: _425  and  _426
REMARK  179  A    between atoms: _425  and  _428
REMARK  180  A    between atoms: _428  and  _429
REMARK  181  A    between atoms: _432  and  _434
REMARK  182  A    between atoms: _434  and  _435
REMARK  183  A    between atoms: _434  and  _437
REMARK  184  A    between atoms: _437  and  _438
REMARK  185  A    between atoms: _443  and  _445
REMARK  186  A    between atoms: _445  and  _446
REMARK  187  A    between atoms: _445  and  _448
REMARK  188  A    between atoms: _448  and  _449
REMARK  189  A    between atoms: _452  and  _454
REMARK  190  A    between atoms: _454  and  _455
REMARK  191  A    between atoms: _454  and  _457
REMARK  192  A    between atoms: _457  and  _458
REMARK  193  A    between atoms: _463  and  _464
REMARK  194  A    between atoms: _466  and  _468
REMARK  195  A    between atoms: _468  and  _469
REMARK  196  A    between atoms: _468  and  _471
REMARK  197  A    between atoms: _473  and  _475
REMARK  198  A    between atoms: _475  and  _476
REMARK  199  A    between atoms: _475  and  _478
REMARK  200  A    between atoms: _478  and  _479
REMARK  201  A    between atoms: _482  and  _484
REMARK  202  A    between atoms: _484  and  _485
REMARK  203  A    between atoms: _484  and  _487
REMARK  204  A    between atoms: _487  and  _488
REMARK  205  A    between atoms: _493  and  _495
REMARK  206  A    between atoms: _495  and  _496
REMARK  207  A    between atoms: _495  and  _498
REMARK  208  A    between atoms: _498  and  _499
REMARK  209  A    between atoms: _502  and  _504
REMARK  210  A    between atoms: _504  and  _505
REMARK  211  A    between atoms: _504  and  _507
REMARK  212  A    between atoms: _507  and  _508
REMARK  213  A    between atoms: _514  and  _516
REMARK  214  A    between atoms: _516  and  _517
REMARK  215  A    between atoms: _516  and  _519
REMARK  216  A    between atoms: _522  and  _524
REMARK  217  A    between atoms: _524  and  _525
REMARK  218  A    between atoms: _524  and  _527
REMARK  219  A    between atoms: _527  and  _528
REMARK  220  A    between atoms: _528  and  _529
REMARK  221  A    between atoms: _532  and  _534
REMARK  222  A    between atoms: _534  and  _535
REMARK  223  A    between atoms: _534  and  _537
REMARK  224  A    between atoms: _537  and  _538
REMARK  225  A    between atoms: _545  and  _546
REMARK  226  A    between atoms: _551  and  _553
REMARK  227  A    between atoms: _553  and  _554
REMARK  228  A    between atoms: _553  and  _556
REMARK  229  A    between atoms: _556  and  _557
REMARK  230  A    between atoms: _557  and  _558
REMARK  231  A    between atoms: _561  and  _563
REMARK  232  A    between atoms: _563  and  _564
REMARK  233  A    between atoms: _563  and  _566
REMARK  234  A    between atoms: _566  and  _567
REMARK  235  A    between atoms: _567  and  _568
REMARK  236  A    between atoms: _570  and  _572
REMARK  237  A    between atoms: _572  and  _573
REMARK  238  A    between atoms: _572  and  _575
REMARK  239  A    between atoms: _575  and  _576
REMARK  240  A    between atoms: _576  and  _577
REMARK  241  A    between atoms: _579  and  _581
REMARK  242  A    between atoms: _581  and  _582
REMARK  243  A    between atoms: _581  and  _584
REMARK  244  A    between atoms: _584  and  _585
REMARK  245  A    between atoms: _587  and  _589
REMARK  246  A    between atoms: _589  and  _590
REMARK  247  A    between atoms: _589  and  _592
REMARK  248  A    between atoms: _592  and  _593
REMARK  249  A    between atoms: _593  and  _594
REMARK  250  A    between atoms: _597  and  _599
REMARK  251  A    between atoms: _599  and  _600
REMARK  252  A    between atoms: _599  and  _602
REMARK  253  A    between atoms: _605  and  _607
REMARK  254  A    between atoms: _607  and  _608
REMARK  255  A    between atoms: _607  and  _610
REMARK  256  A    between atoms: _610  and  _611
REMARK  257  A    between atoms: _614  and  _616
REMARK  258  A    between atoms: _616  and  _617
REMARK  259  A    between atoms: _616  and  _619
REMARK  260  A    between atoms: _619  and  _620
REMARK                            x       y       z     vdW  Elec       q    Type
REMARK                         _______ _______ _______ _____ _____    ______ ____
ROOT
ATOM      1  CA  LEU A   1      16.850  16.914   8.576  0.00  0.00    +0.133 C 
ENDROOT
BRANCH   1   2
ATOM      2  N   LEU A   1      16.548  16.621   7.179  0.00  0.00    -0.239 NA
ATOM      3  H   LEU A   1      16.822  15.699   6.784  0.00  0.00    +0.142 HD
ENDBRANCH   1   2
BRANCH   1   4
ATOM      4  C   LEU A   1      18.346  17.146   8.763  0.00  0.00    +0.224 C 
ATOM      5  O   LEU A   1      19.129  16.197   8.708  0.00  0.00    -0.287 OA
ENDBRANCH   1   4
BRANCH   1   6
ATOM      6  CB  LEU A   1      16.416  15.768   9.494  0.00  0.00    +0.025 C 
BRANCH   6   7
ATOM      7  CG  LEU A   1      14.998  15.189   9.413  0.00  0.00    +0.002 C 
ATOM      8  CD2 LEU A   1      14.632  14.586  10.771  0.00  0.00    +0.000 C 
ATOM      9  CD1 LEU A   1      13.960  16.208   8.987  0.00  0.00    +0.000 C 
ENDBRANCH   6   7
ENDBRANCH   1   6
TORSDOF 4
REMARK  Name = ../refined-set-2016/2w8y/2w8y_pocket.pdb
REMARK  260 active torsions:
REMARK  status: ('A' for Active; 'I' for Inactive)
REMARK    1  A    between atoms: _1  and  _3
REMARK    2  A    between atoms: _3  and  _4
REMARK    3  A    between atoms: _3  and  _6
REMARK    4  A    between atoms: _6  and  _7
REMARK    5  A    between atoms: _10  and  _12
REMARK    6  A    between atoms: _12  and  _13
REMARK    7  A    between atoms: _16  and  _18
REMARK    8  A    between atoms: _18  and  _19
REMARK    9  A    between atoms: _18  and  _21
REMARK   10  A    between atoms: _21  and  _22
REMARK   11  A    between atoms: _24  and  _26
REMARK   12  A    between atoms: _26  and  _27
REMARK   13  A    between atoms: _26  and  _29
REMARK   14  A    between atoms: _29  and  _30
REMARK   15  A    between atoms: _33  and  _35
REMARK   16  A    between atoms: _35  and  _36
REMARK   17  A    between atoms: _35  and  _38
REMARK   18  A    between atoms: _38  and  _39
REMARK   19  A    between atoms: _42  and  _44
REMARK   20  A    between atoms: _44  and  _45
REMARK   21  A    between atoms: _44  and  _47
REMARK   22  A    between atoms: _47  and  _48
REMARK   23  A    between atoms: _51  and  _53
REMARK   24  A    between atoms: _53  and  _54
REMARK   25  A    between atoms: _53  and  _56
REMARK   26  A    between atoms: _56  and  _57
REMARK   27  A    between atoms: _59  and  _61
REMARK   28  A    between atoms: _61  and  _62
REMARK   29  A    between atoms: _61  and  _64
REMARK   30  A    between atoms: _64  and  _65
REMARK   31  A    between atoms: _68  and  _70
REMARK   32  A    between atoms: _70  and  _71
REMARK   33  A    between atoms: _70  and  _73
REMARK   34  A    between atoms: _73  and  _74
REMARK   35  A    between atoms: _79  and  _81
REMARK   36  A    between atoms: _81  and  _82
REMARK   37  A    between atoms: _81  and  _84
REMARK   38  A    between atoms: _84  and  _85
REMARK   39  A    between atoms: _85  and  _86
REMARK   40  A    between atoms: _91  and  _93
REMARK   41  A    between atoms: _93  and  _94
REMARK   42  A    between atoms: _93  and  _96
REMARK   43  A    between atoms: _96  and  _97
REMARK   44  A    between atoms: _100  and  _102
REMARK   45  A    between atoms: _102  and  _103
REMARK   46  A    between atoms: _105  and  _107
REMARK   47  A    between atoms: _107  and  _108
REMARK   48  A    between atoms: _107  and  _110
REMARK   49  A    between atoms: _110  and  _111
REMARK   50  A    between atoms: _111  and  _112
REMARK   51  A    between atoms: _115  and  _117
REMARK   52  A    between atoms: _117  and  _118
REMARK   53  A    between atoms: _117  and  _120
REMARK   54  A    between atoms: _120  and  _121
REMARK   55  A    between atoms: _121  and  _122
REMARK   56  A    between atoms: _122  and  _123
REMARK   57  A    between atoms: _132  and  _134
REMARK   58  A    between atoms: _134  and  _135
REMARK   59  A    between atoms: _134  and  _137
REMARK   60  A    between atoms: _137  and  _138
REMARK   61  A    between atoms: _138  and  _139
REMARK   62  A    between atoms: _144  and  _146
REMARK   63  A    between atoms: _146  and  _147
REMARK   64  A    between atoms: _146  and  _149
REMARK   65  A    between atoms: _149  and  _150
REMARK   66  A    between atoms: _153  and  _155
REMARK   67  A    between atoms: _155  and  _156
REMARK   68  A    between atoms: _155  and  _158
REMARK   69  A    between atoms: _158  and  _159
REMARK   70  A    between atoms: _162  and  _164
REMARK   71  A    between atoms: _164  and  _165
REMARK   72  A    between atoms: _164  and  _167
REMARK   73  A    between atoms: _167  and  _168
REMARK   74  A    between atoms: _178  and  _180
REMARK   75  A    between atoms: _180  and  _181
REMARK   76  A    between atoms: _180  and  _183
REMARK   77  A    between atoms: _183  and  _184
REMARK   78  A    between atoms: _184  and  _185
REMARK   79  A    between atoms: _187  and  _189
REMARK   80  A    between atoms: _189  and  _190
REMARK   81  A    between atoms: _189  and  _192
REMARK   82  A    between atoms: _192  and  _193
REMARK   83  A    between atoms: _195  and  _197
REMARK   84  A    between atoms: _197  and  _198
REMARK   85  A    between atoms: _197  and  _200
REMARK   86  A    between atoms: _200  and  _201
REMARK   87  A    between atoms: _204  and  _206
REMARK   88  A    between atoms: _206  and  _207
REMARK   89  A    between atoms: _206  and  _209
REMARK   90  A    between atoms: _209  and  _210
REMARK   91  A    between atoms: _210  and  _211
REMARK   92  A    between atoms: _213  and  _215
REMARK   93  A    between atoms: _215  and  _216
REMARK   94  A    between atoms: _215  and  _218
REMARK   95  A    between atoms: _221  and  _223
REMARK   96  A    between atoms: _223  and  _224
REMARK   97  A    between atoms: _223  and  _226
REMARK   98  A    between atoms: _226  and  _227
REMARK   99  A    between atoms: _233  and  _235
REMARK  100  A    between atoms: _235  and  _236
REMARK  101  A    between atoms: _238  and  _240
REMARK  102  A    between atoms: _240  and  _241
REMARK  103  A    between atoms: _240  and  _243
REMARK  104  A    between atoms: _243  and  _244
REMARK  105  A    between atoms: _247  and  _249
REMARK  106  A    between atoms: _249  and  _250
REMARK  107  A    between atoms: _252  and  _254
REMARK  108  A    between atoms: _254  and  _255
REMARK  109  A    between atoms: _254  and  _257
REMARK  110  A    between atoms: _257  and  _258
REMARK  111  A    between atoms: _258  and  _259
REMARK  112  A    between atoms: _259  and  _260
REMARK  113  A    between atoms: _269  and  _271
REMARK  114  A    between atoms: _271  and  _272
REMARK  115  A    between atoms: _271  and  _274
REMARK  116  A    between atoms: _274  and  _275
REMARK  117  A    between atoms: _277  and  _279
REMARK  118  A    between atoms: _279  and  _280
REMARK  119  A    between atoms: _279  and  _282
REMARK  120  A    between atoms: _282  and  _283
REMARK  121  A    between atoms: _288  and  _289
REMARK  122  A    between atoms: _291  and  _293
REMARK  123  A    between atoms: _293  and  _294
REMARK  124  A    between atoms: _293  and  _296
REMARK  125  A    between atoms: _296  and  _297
REMARK  126  A    between atoms: _303  and  _305
REMARK  127  A    between atoms: _305  and  _306
REMARK  128  A    between atoms: _309  and  _311
REMARK  129  A    between atoms: _311  and  _312
REMARK  130  A    between atoms: _311  and  _314
REMARK  131  A    between atoms: _314  and  _315
REMARK  132  A    between atoms: _318  and  _320
REMARK  133  A    between atoms: _320  and  _321
REMARK  134  A    between atoms: _320  and  _323
REMARK  135  A    between atoms: _323  and  _324
REMARK  136  A    between atoms: _327  and  _329
REMARK  137  A    between atoms: _329  and  _330
REMARK  138  A    between atoms: _329  and  _332
REMARK  139  A    between atoms: _332  and  _333
REMARK  140  A    between atoms: _335  and  _337
REMARK  141  A    between atoms: _337  and  _338
REMARK  142  A    between atoms: _337  and  _340
REMARK  143  A    between atoms: _340  and  _341
REMARK  144  A    between atoms: _343  and  _345
REMARK  145  A    between atoms: _345  and  _346
REMARK  146  A    between atoms: _345  and  _348
REMARK  147  A    between atoms: _348  and  _349
REMARK  148  A    between atoms: _355  and  _357
REMARK  149  A    between atoms: _357  and  _358
REMARK  150  A    between atoms: _357  and  _360
REMARK  151  A    between atoms: _360  and  _361
REMARK  152  A    between atoms: _366  and  _367
REMARK  153  A    between atoms: _369  and  _371
REMARK  154  A    between atoms: _371  and  _372
REMARK  155  A    between atoms: _371  and  _374
REMARK  156  A    between atoms: _374  and  _375
REMARK  157  A    between atoms: _378  and  _380
REMARK  158  A    between atoms: _380  and  _381
REMARK  159  A    between atoms: _380  and  _383
REMARK  160  A    between atoms: _385  and  _387
REMARK  161  A    between atoms: _387  and  _388
REMARK  162  A    between atoms: _387  and  _390
REMARK  163  A    between atoms: _390  and  _391
REMARK  164  A    between atoms: _391  and  _392
REMARK  165  A    between atoms: _394  and  _396
REMARK  166  A    between atoms: _396  and  _397
REMARK  167  A    between atoms: _396  and  _399
REMARK  168  A    between atoms: _399  and  _400
REMARK  169  A    between atoms: _403  and  _405
REMARK  170  A    between atoms: _405  and  _406
REMARK  171  A    between atoms: _405  and  _408
REMARK  172  A    between atoms: _411  and  _413
REMARK  173  A    between atoms: _413  and  _414
REMARK  174  A    between atoms: _413  and  _416
REMARK  175  A    between atoms: _416  and  _417
REMARK  176  A    between atoms: _417  and  _418
REMARK  177  A    between atoms: _423  and  _425
REMARK  178  A    between atoms: _425  and  _426
REMARK  179  A    between atoms: _425  and  _428
REMARK  180  A    between atoms: _428  and  _429
REMARK  181  A    between atoms: _432  and  _434
REMARK  182  A    between atoms: _434  and  _435
REMARK  183  A    between atoms: _434  and  _437
REMARK  184  A    between atoms: _437  and  _438
REMARK  185  A    between atoms: _443  and  _445
REMARK  186  A    between atoms: _445  and  _446
REMARK  187  A    between atoms: _445  and  _448
REMARK  188  A    between atoms: _448  and  _449
REMARK  189  A    between atoms: _452  and  _454
REMARK  190  A    between atoms: _454  and  _455
REMARK  191  A    between atoms: _454  and  _457
REMARK  192  A    between atoms: _457  and  _458
REMARK  193  A    between atoms: _463  and  _464
REMARK  194  A    between atoms: _466  and  _468
REMARK  195  A    between atoms: _468  and  _469
REMARK  196  A    between atoms: _468  and  _471
REMARK  197  A    between atoms: _473  and  _475
REMARK  198  A    between atoms: _475  and  _476
REMARK  199  A    between atoms: _475  and  _478
REMARK  200  A    between atoms: _478  and  _479
REMARK  201  A    between atoms: _482  and  _484
REMARK  202  A    between atoms: _484  and  _485
REMARK  203  A    between atoms: _484  and  _487
REMARK  204  A    between atoms: _487  and  _488
REMARK  205  A    between atoms: _493  and  _495
REMARK  206  A    between atoms: _495  and  _496
REMARK  207  A    between atoms: _495  and  _498
REMARK  208  A    between atoms: _498  and  _499
REMARK  209  A    between atoms: _502  and  _504
REMARK  210  A    between atoms: _504  and  _505
REMARK  211  A    between atoms: _504  and  _507
REMARK  212  A    between atoms: _507  and  _508
REMARK  213  A    between atoms: _514  and  _516
REMARK  214  A    between atoms: _516  and  _517
REMARK  215  A    between atoms: _516  and  _519
REMARK  216  A    between atoms: _522  and  _524
REMARK  217  A    between atoms: _524  and  _525
REMARK  218  A    between atoms: _524  and  _527
REMARK  219  A    between atoms: _527  and  _528
REMARK  220  A    between atoms: _528  and  _529
REMARK  221  A    between atoms: _532  and  _534
REMARK  222  A    between atoms: _534  and  _535
REMARK  223  A    between atoms: _534  and  _537
REMARK  224  A    between atoms: _537  and  _538
REMARK  225  A    between atoms: _545  and  _546
REMARK  226  A    between atoms: _551  and  _553
REMARK  227  A    between atoms: _553  and  _554
REMARK  228  A    between atoms: _553  and  _556
REMARK  229  A    between atoms: _556  and  _557
REMARK  230  A    between atoms: _557  and  _558
REMARK  231  A    between atoms: _561  and  _563
REMARK  232  A    between atoms: _563  and  _564
REMARK  233  A    between atoms: _563  and  _566
REMARK  234  A    between atoms: _566  and  _567
REMARK  235  A    between atoms: _567  and  _568
REMARK  236  A    between atoms: _570  and  _572
REMARK  237  A    between atoms: _572  and  _573
REMARK  238  A    between atoms: _572  and  _575
REMARK  239  A    between atoms: _575  and  _576
REMARK  240  A    between atoms: _576  and  _577
REMARK  241  A    between atoms: _579  and  _581
REMARK  242  A    between atoms: _581  and  _582
REMARK  243  A    between atoms: _581  and  _584
REMARK  244  A    between atoms: _584  and  _585
REMARK  245  A    between atoms: _587  and  _589
REMARK  246  A    between atoms: _589  and  _590
REMARK  247  A    between atoms: _589  and  _592
REMARK  248  A    between atoms: _592  and  _593
REMARK  249  A    between atoms: _593  and  _594
REMARK  250  A    between atoms: _597  and  _599
REMARK  251  A    between atoms: _599  and  _600
REMARK  252  A    between atoms: _599  and  _602
REMARK  253  A    between atoms: _605  and  _607
REMARK  254  A    between atoms: _607  and  _608
REMARK  255  A    between atoms: _607  and  _610
REMARK  256  A    between atoms: _610  and  _611
REMARK  257  A    between atoms: _614  and  _616
REMARK  258  A    between atoms: _616  and  _617
REMARK  259  A    between atoms: _616  and  _619
REMARK  260  A    between atoms: _619  and  _620
REMARK                            x       y       z     vdW  Elec       q    Type
REMARK                         _______ _______ _______ _____ _____    ______ ____
ROOT
ATOM      1  CA  PHE A   3      13.834  10.667  17.893  0.00  0.00    +0.153 C 
ENDROOT
BRANCH   1   4
ATOM      2  C   SER A   2      12.490  12.213  19.227  0.00  0.00    +0.243 C 
ATOM      3  O   SER A   2      12.330  11.387  20.129  0.00  0.00    -0.273 OA
ATOM      4  N   PHE A   3      13.155  11.946  18.102  0.00  0.00    -0.297 N 
ATOM      5  H   PHE A   3      13.192  12.667  17.353  0.00  0.00    +0.150 HD
BRANCH   2   6
ATOM      6  CA  SER A   2      11.927  13.626  19.359  0.00  0.00    +0.178 C 
BRANCH   6   8
ATOM      7  C   SER A   1      11.976  14.822  17.225  0.00  0.00    +0.241 C 
ATOM      8  N   SER A   2      12.564  14.496  18.371  0.00  0.00    -0.295 N 
ATOM      9  H   SER A   2      13.512  14.873  18.573  0.00  0.00    +0.150 HD
ATOM     10  O   SER A   1      10.812  14.514  16.953  0.00  0.00    -0.274 OA
BRANCH   7  11
ATOM     11  CA  SER A   1      12.834  15.607  16.226  0.00  0.00    +0.174 C 
BRANCH  11  12
ATOM     12  N   SER A   1      13.801  16.516  16.862  0.00  0.00    -0.236 NA
ATOM     13  H   SER A   1      14.815  16.287  16.820  0.00  0.00    +0.142 HD
ENDBRANCH  11  12
BRANCH  11  14
ATOM     14  CB  SER A   1      13.561  14.618  15.312  0.00  0.00    +0.163 C 
BRANCH  14  15
ATOM     15  OG  SER A   1      14.260  13.645  16.068  0.00  0.00    -0.380 OA
ATOM     16  H   SER A   1      14.928  14.094  16.645  0.00  0.00    +0.211 HD
ENDBRANCH  14  15
ENDBRANCH  11  14
ENDBRANCH   7  11
ENDBRANCH   6   8
BRANCH   6  17
ATOM     17  CB  SER A   2      10.399  13.612  19.199  0.00  0.00    +0.166 C 
BRANCH  17  18
ATOM     18  OG  SER A   2       9.982  12.742  18.156  0.00  0.00    -0.380 OA
ATOM     19  H   SER A   2      10.381  13.040  17.300  0.00  0.00    +0.211 HD
ENDBRANCH  17  18
ENDBRANCH   6  17
ENDBRANCH   2   6
ENDBRANCH   1   4
BRANCH   1  20
ATOM     20  C   PHE A   3      15.275  10.866  17.415  0.00  0.00    +0.241 C 
ATOM     21  N   TYR A   4      16.022  11.658  18.179  0.00  0.00    -0.298 N 
ATOM     22  H   TYR A   4      15.602  12.031  19.054  0.00  0.00    +0.150 HD
ATOM     23  O   PHE A   3      15.693  10.304  16.400  0.00  0.00    -0.273 OA
BRANCH  21  24
ATOM     24  CA  TYR A   4      17.406  12.037  17.860  0.00  0.00    +0.141 C 
BRANCH  24  25
ATOM     25  C   TYR A   4      18.339  10.831  17.789  0.00  0.00    +0.227 C 
ATOM     26  O   TYR A   4      19.185  10.755  16.899  0.00  0.00    -0.286 OA
ENDBRANCH  24  25
BRANCH  24  27
ATOM     27  CB  TYR A   4      17.928  13.054  18.896  0.00  0.00    +0.054 C 
BRANCH  27  28
ATOM     28  CG  TYR A   4      19.352  13.556  18.674  0.00  0.00    -0.020 A 
ATOM     29  CD2 TYR A   4      20.237  13.697  19.749  0.00  0.00    -0.001 A 
ATOM     30  CE2 TYR A   4      21.547  14.171  19.559  0.00  0.00    +0.036 A 
ATOM     31  CZ  TYR A   4      21.972  14.524  18.283  0.00  0.00    +0.134 A 
ATOM     32  CE1 TYR A   4      21.105  14.404  17.203  0.00  0.00    +0.036 A 
ATOM     33  CD1 TYR A   4      19.802  13.927  17.403  0.00  0.00    -0.001 A 
BRANCH  31  34
ATOM     34  OH  TYR A   4      23.255  14.993  18.088  0.00  0.00    -0.506 OA
ATOM     35  HH  TYR A   4      23.389  15.195  17.128  0.00  0.00    +0.292 HD
ENDBRANCH  31  34
ENDBRANCH  27  28
ENDBRANCH  24  27
ENDBRANCH  21  24
ENDBRANCH   1  20
BRANCH   1  36
ATOM     36  CB  PHE A   3      13.055   9.791  16.908  0.00  0.00    +0.055 C 
BRANCH  36  37
ATOM     37  CG  PHE A   3      12.614  10.510  15.665  0.00  0.00    -0.020 A 
ATOM     38  CD2 PHE A   3      11.463  11.283  15.667  0.00  0.00    -0.004 A 
ATOM     39  CE2 PHE A   3      11.049  11.937  14.524  0.00  0.00    -0.000 A 
ATOM     40  CZ  PHE A   3      11.784  11.826  13.366  0.00  0.00    -0.000 A 
ATOM     41  CE1 PHE A   3      12.933  11.060  13.352  0.00  0.00    -0.000 A 
ATOM     42  CD1 PHE A   3      13.340  10.406  14.495  0.00  0.00    -0.004 A 
ENDBRANCH  36  37
ENDBRANCH   1  36
TORSDOF 17
REMARK  Name = ../refined-set-2016/2w8y/2w8y_pocket.pdb
REMARK  260 active torsions:
REMARK  status: ('A' for Active; 'I' for Inactive)
REMARK    1  A    between atoms: _1  and  _3
REMARK    2  A    between atoms: _3  and  _4
REMARK    3  A    between atoms: _3  and  _6
REMARK    4  A    between atoms: _6  and  _7
REMARK    5  A    between atoms: _10  and  _12
REMARK    6  A    between atoms: _12  and  _13
REMARK    7  A    between atoms: _16  and  _18
REMARK    8  A    between atoms: _18  and  _19
REMARK    9  A    between atoms: _18  and  _21
REMARK   10  A    between atoms: _21  and  _22
REMARK   11  A    between atoms: _24  and  _26
REMARK   12  A    between atoms: _26  and  _27
REMARK   13  A    between atoms: _26  and  _29
REMARK   14  A    between atoms: _29  and  _30
REMARK   15  A    between atoms: _33  and  _35
REMARK   16  A    between atoms: _35  and  _36
REMARK   17  A    between atoms: _35  and  _38
REMARK   18  A    between atoms: _38  and  _39
REMARK   19  A    between atoms: _42  and  _44
REMARK   20  A    between atoms: _44  and  _45
REMARK   21  A    between atoms: _44  and  _47
REMARK   22  A    between atoms: _47  and  _48
REMARK   23  A    between atoms: _51  and  _53
REMARK   24  A    between atoms: _53  and  _54
REMARK   25  A    between atoms: _53  and  _56
REMARK   26  A    between atoms: _56  and  _57
REMARK   27  A    between atoms: _59  and  _61
REMARK   28  A    between atoms: _61  and  _62
REMARK   29  A    between atoms: _61  and  _64
REMARK   30  A    between atoms: _64  and  _65
REMARK   31  A    between atoms: _68  and  _70
REMARK   32  A    between atoms: _70  and  _71
REMARK   33  A    between atoms: _70  and  _73
REMARK   34  A    between atoms: _73  and  _74
REMARK   35  A    between atoms: _79  and  _81
REMARK   36  A    between atoms: _81  and  _82
REMARK   37  A    between atoms: _81  and  _84
REMARK   38  A    between atoms: _84  and  _85
REMARK   39  A    between atoms: _85  and  _86
REMARK   40  A    between atoms: _91  and  _93
REMARK   41  A    between atoms: _93  and  _94
REMARK   42  A    between atoms: _93  and  _96
REMARK   43  A    between atoms: _96  and  _97
REMARK   44  A    between atoms: _100  and  _102
REMARK   45  A    between atoms: _102  and  _103
REMARK   46  A    between atoms: _105  and  _107
REMARK   47  A    between atoms: _107  and  _108
REMARK   48  A    between atoms: _107  and  _110
REMARK   49  A    between atoms: _110  and  _111
REMARK   50  A    between atoms: _111  and  _112
REMARK   51  A    between atoms: _115  and  _117
REMARK   52  A    between atoms: _117  and  _118
REMARK   53  A    between atoms: _117  and  _120
REMARK   54  A    between atoms: _120  and  _121
REMARK   55  A    between atoms: _121  and  _122
REMARK   56  A    between atoms: _122  and  _123
REMARK   57  A    between atoms: _132  and  _134
REMARK   58  A    between atoms: _134  and  _135
REMARK   59  A    between atoms: _134  and  _137
REMARK   60  A    between atoms: _137  and  _138
REMARK   61  A    between atoms: _138  and  _139
REMARK   62  A    between atoms: _144  and  _146
REMARK   63  A    between atoms: _146  and  _147
REMARK   64  A    between atoms: _146  and  _149
REMARK   65  A    between atoms: _149  and  _150
REMARK   66  A    between atoms: _153  and  _155
REMARK   67  A    between atoms: _155  and  _156
REMARK   68  A    between atoms: _155  and  _158
REMARK   69  A    between atoms: _158  and  _159
REMARK   70  A    between atoms: _162  and  _164
REMARK   71  A    between atoms: _164  and  _165
REMARK   72  A    between atoms: _164  and  _167
REMARK   73  A    between atoms: _167  and  _168
REMARK   74  A    between atoms: _178  and  _180
REMARK   75  A    between atoms: _180  and  _181
REMARK   76  A    between atoms: _180  and  _183
REMARK   77  A    between atoms: _183  and  _184
REMARK   78  A    between atoms: _184  and  _185
REMARK   79  A    between atoms: _187  and  _189
REMARK   80  A    between atoms: _189  and  _190
REMARK   81  A    between atoms: _189  and  _192
REMARK   82  A    between atoms: _192  and  _193
REMARK   83  A    between atoms: _195  and  _197
REMARK   84  A    between atoms: _197  and  _198
REMARK   85  A    between atoms: _197  and  _200
REMARK   86  A    between atoms: _200  and  _201
REMARK   87  A    between atoms: _204  and  _206
REMARK   88  A    between atoms: _206  and  _207
REMARK   89  A    between atoms: _206  and  _209
REMARK   90  A    between atoms: _209  and  _210
REMARK   91  A    between atoms: _210  and  _211
REMARK   92  A    between atoms: _213  and  _215
REMARK   93  A    between atoms: _215  and  _216
REMARK   94  A    between atoms: _215  and  _218
REMARK   95  A    between atoms: _221  and  _223
REMARK   96  A    between atoms: _223  and  _224
REMARK   97  A    between atoms: _223  and  _226
REMARK   98  A    between atoms: _226  and  _227
REMARK   99  A    between atoms: _233  and  _235
REMARK  100  A    between atoms: _235  and  _236
REMARK  101  A    between atoms: _238  and  _240
REMARK  102  A    between atoms: _240  and  _241
REMARK  103  A    between atoms: _240  and  _243
REMARK  104  A    between atoms: _243  and  _244
REMARK  105  A    between atoms: _247  and  _249
REMARK  106  A    between atoms: _249  and  _250
REMARK  107  A    between atoms: _252  and  _254
REMARK  108  A    between atoms: _254  and  _255
REMARK  109  A    between atoms: _254  and  _257
REMARK  110  A    between atoms: _257  and  _258
REMARK  111  A    between atoms: _258  and  _259
REMARK  112  A    between atoms: _259  and  _260
REMARK  113  A    between atoms: _269  and  _271
REMARK  114  A    between atoms: _271  and  _272
REMARK  115  A    between atoms: _271  and  _274
REMARK  116  A    between atoms: _274  and  _275
REMARK  117  A    between atoms: _277  and  _279
REMARK  118  A    between atoms: _279  and  _280
REMARK  119  A    between atoms: _279  and  _282
REMARK  120  A    between atoms: _282  and  _283
REMARK  121  A    between atoms: _288  and  _289
REMARK  122  A    between atoms: _291  and  _293
REMARK  123  A    between atoms: _293  and  _294
REMARK  124  A    between atoms: _293  and  _296
REMARK  125  A    between atoms: _296  and  _297
REMARK  126  A    between atoms: _303  and  _305
REMARK  127  A    between atoms: _305  and  _306
REMARK  128  A    between atoms: _309  and  _311
REMARK  129  A    between atoms: _311  and  _312
REMARK  130  A    between atoms: _311  and  _314
REMARK  131  A    between atoms: _314  and  _315
REMARK  132  A    between atoms: _318  and  _320
REMARK  133  A    between atoms: _320  and  _321
REMARK  134  A    between atoms: _320  and  _323
REMARK  135  A    between atoms: _323  and  _324
REMARK  136  A    between atoms: _327  and  _329
REMARK  137  A    between atoms: _329  and  _330
REMARK  138  A    between atoms: _329  and  _332
REMARK  139  A    between atoms: _332  and  _333
REMARK  140  A    between atoms: _335  and  _337
REMARK  141  A    between atoms: _337  and  _338
REMARK  142  A    between atoms: _337  and  _340
REMARK  143  A    between atoms: _340  and  _341
REMARK  144  A    between atoms: _343  and  _345
REMARK  145  A    between atoms: _345  and  _346
REMARK  146  A    between atoms: _345  and  _348
REMARK  147  A    between atoms: _348  and  _349
REMARK  148  A    between atoms: _355  and  _357
REMARK  149  A    between atoms: _357  and  _358
REMARK  150  A    between atoms: _357  and  _360
REMARK  151  A    between atoms: _360  and  _361
REMARK  152  A    between atoms: _366  and  _367
REMARK  153  A    between atoms: _369  and  _371
REMARK  154  A    between atoms: _371  and  _372
REMARK  155  A    between atoms: _371  and  _374
REMARK  156  A    between atoms: _374  and  _375
REMARK  157  A    between atoms: _378  and  _380
REMARK  158  A    between atoms: _380  and  _381
REMARK  159  A    between atoms: _380  and  _383
REMARK  160  A    between atoms: _385  and  _387
REMARK  161  A    between atoms: _387  and  _388
REMARK  162  A    between atoms: _387  and  _390
REMARK  163  A    between atoms: _390  and  _391
REMARK  164  A    between atoms: _391  and  _392
REMARK  165  A    between atoms: _394  and  _396
REMARK  166  A    between atoms: _396  and  _397
REMARK  167  A    between atoms: _396  and  _399
REMARK  168  A    between atoms: _399  and  _400
REMARK  169  A    between atoms: _403  and  _405
REMARK  170  A    between atoms: _405  and  _406
REMARK  171  A    between atoms: _405  and  _408
REMARK  172  A    between atoms: _411  and  _413
REMARK  173  A    between atoms: _413  and  _414
REMARK  174  A    between atoms: _413  and  _416
REMARK  175  A    between atoms: _416  and  _417
REMARK  176  A    between atoms: _417  and  _418
REMARK  177  A    between atoms: _423  and  _425
REMARK  178  A    between atoms: _425  and  _426
REMARK  179  A    between atoms: _425  and  _428
REMARK  180  A    between atoms: _428  and  _429
REMARK  181  A    between atoms: _432  and  _434
REMARK  182  A    between atoms: _434  and  _435
REMARK  183  A    between atoms: _434  and  _437
REMARK  184  A    between atoms: _437  and  _438
REMARK  185  A    between atoms: _443  and  _445
REMARK  186  A    between atoms: _445  and  _446
REMARK  187  A    between atoms: _445  and  _448
REMARK  188  A    between atoms: _448  and  _449
REMARK  189  A    between atoms: _452  and  _454
REMARK  190  A    between atoms: _454  and  _455
REMARK  191  A    between atoms: _454  and  _457
REMARK  192  A    between atoms: _457  and  _458
REMARK  193  A    between atoms: _463  and  _464
REMARK  194  A    between atoms: _466  and  _468
REMARK  195  A    between atoms: _468  and  _469
REMARK  196  A    between atoms: _468  and  _471
REMARK  197  A    between atoms: _473  and  _475
REMARK  198  A    between atoms: _475  and  _476
REMARK  199  A    between atoms: _475  and  _478
REMARK  200  A    between atoms: _478  and  _479
REMARK  201  A    between atoms: _482  and  _484
REMARK  202  A    between atoms: _484  and  _485
REMARK  203  A    between atoms: _484  and  _487
REMARK  204  A    between atoms: _487  and  _488
REMARK  205  A    between atoms: _493  and  _495
REMARK  206  A    between atoms: _495  and  _496
REMARK  207  A    between atoms: _495  and  _498
REMARK  208  A    between atoms: _498  and  _499
REMARK  209  A    between atoms: _502  and  _504
REMARK  210  A    between atoms: _504  and  _505
REMARK  211  A    between atoms: _504  and  _507
REMARK  212  A    between atoms: _507  and  _508
REMARK  213  A    between atoms: _514  and  _516
REMARK  214  A    between atoms: _516  and  _517
REMARK  215  A    between atoms: _516  and  _519
REMARK  216  A    between atoms: _522  and  _524
REMARK  217  A    between atoms: _524  and  _525
REMARK  218  A    between atoms: _524  and  _527
REMARK  219  A    between atoms: _527  and  _528
REMARK  220  A    between atoms: _528  and  _529
REMARK  221  A    between atoms: _532  and  _534
REMARK  222  A    between atoms: _534  and  _535
REMARK  223  A    between atoms: _534  and  _537
REMARK  224  A    between atoms: _537  and  _538
REMARK  225  A    between atoms: _545  and  _546
REMARK  226  A    between atoms: _551  and  _553
REMARK  227  A    between atoms: _553  and  _554
REMARK  228  A    between atoms: _553  and  _556
REMARK  229  A    between atoms: _556  and  _557
REMARK  230  A    between atoms: _557  and  _558
REMARK  231  A    between atoms: _561  and  _563
REMARK  232  A    between atoms: _563  and  _564
REMARK  233  A    between atoms: _563  and  _566
REMARK  234  A    between atoms: _566  and  _567
REMARK  235  A    between atoms: _567  and  _568
REMARK  236  A    between atoms: _570  and  _572
REMARK  237  A    between atoms: _572  and  _573
REMARK  238  A    between atoms: _572  and  _575
REMARK  239  A    between atoms: _575  and  _576
REMARK  240  A    between atoms: _576  and  _577
REMARK  241  A    between atoms: _579  and  _581
REMARK  242  A    between atoms: _581  and  _582
REMARK  243  A    between atoms: _581  and  _584
REMARK  244  A    between atoms: _584  and  _585
REMARK  245  A    between atoms: _587  and  _589
REMARK  246  A    between atoms: _589  and  _590
REMARK  247  A    between atoms: _589  and  _592
REMARK  248  A    between atoms: _592  and  _593
REMARK  249  A    between atoms: _593  and  _594
REMARK  250  A    between atoms: _597  and  _599
REMARK  251  A    between atoms: _599  and  _600
REMARK  252  A    between atoms: _599  and  _602
REMARK  253  A    between atoms: _605  and  _607
REMARK  254  A    between atoms: _607  and  _608
REMARK  255  A    between atoms: _607  and  _610
REMARK  256  A    between atoms: _610  and  _611
REMARK  257  A    between atoms: _614  and  _616
REMARK  258  A    between atoms: _616  and  _617
REMARK  259  A    between atoms: _616  and  _619
REMARK  260  A    between atoms: _619  and  _620
REMARK                            x       y       z     vdW  Elec       q    Type
REMARK                         _______ _______ _______ _____ _____    ______ ____
ROOT
ATOM      1  C   LEU A   1      17.901   7.710  14.669  0.00  0.00    +0.238 C 
ATOM      2  N   CYS A   2      17.810   9.043  14.628  0.00  0.00    -0.298 N 
ATOM      3  H   CYS A   2      17.282   9.543  15.372  0.00  0.00    +0.150 HD
ATOM      4  O   LEU A   1      18.490   7.055  13.806  0.00  0.00    -0.274 OA
ENDROOT
BRANCH   1   5
ATOM      5  CA  LEU A   1      17.252   6.993  15.863  0.00  0.00    +0.145 C 
BRANCH   5   6
ATOM      6  N   LEU A   1      17.558   7.702  17.099  0.00  0.00    -0.238 NA
ATOM      7  H   LEU A   1      16.785   8.103  17.668  0.00  0.00    +0.142 HD
ENDBRANCH   5   6
BRANCH   5   8
ATOM      8  CB  LEU A   1      15.737   6.826  15.645  0.00  0.00    +0.026 C 
BRANCH   8   9
ATOM      9  CG  LEU A   1      15.367   5.807  14.547  0.00  0.00    +0.002 C 
ATOM     10  CD2 LEU A   1      15.554   4.394  15.059  0.00  0.00    +0.000 C 
ATOM     11  CD1 LEU A   1      13.948   5.976  14.035  0.00  0.00    +0.000 C 
ENDBRANCH   8   9
ENDBRANCH   5   8
ENDBRANCH   1   5
BRANCH   2  12
ATOM     12  CA  CYS A   2      18.446   9.816  13.545  0.00  0.00    +0.149 C 
BRANCH  12  13
ATOM     13  CB  CYS A   2      18.182  11.320  13.670  0.00  0.00    +0.096 C 
ATOM     14  SG  CYS A   2      16.492  11.837  13.320  0.00  0.00    -0.080 S 
ENDBRANCH  12  13
BRANCH  12  15
ATOM     15  C   CYS A   2      19.957   9.562  13.497  0.00  0.00    +0.228 C 
ATOM     16  O   CYS A   2      20.509   9.324  12.425  0.00  0.00    -0.286 OA
ENDBRANCH  12  15
ENDBRANCH   2  12
TORSDOF 7
REMARK  Name = ../refined-set-2016/2w8y/2w8y_pocket.pdb
REMARK  260 active torsions:
REMARK  status: ('A' for Active; 'I' for Inactive)
REMARK    1  A    between atoms: _1  and  _3
REMARK    2  A    between atoms: _3  and  _4
REMARK    3  A    between atoms: _3  and  _6
REMARK    4  A    between atoms: _6  and  _7
REMARK    5  A    between atoms: _10  and  _12
REMARK    6  A    between atoms: _12  and  _13
REMARK    7  A    between atoms: _16  and  _18
REMARK    8  A    between atoms: _18  and  _19
REMARK    9  A    between atoms: _18  and  _21
REMARK   10  A    between atoms: _21  and  _22
REMARK   11  A    between atoms: _24  and  _26
REMARK   12  A    between atoms: _26  and  _27
REMARK   13  A    between atoms: _26  and  _29
REMARK   14  A    between atoms: _29  and  _30
REMARK   15  A    between atoms: _33  and  _35
REMARK   16  A    between atoms: _35  and  _36
REMARK   17  A    between atoms: _35  and  _38
REMARK   18  A    between atoms: _38  and  _39
REMARK   19  A    between atoms: _42  and  _44
REMARK   20  A    between atoms: _44  and  _45
REMARK   21  A    between atoms: _44  and  _47
REMARK   22  A    between atoms: _47  and  _48
REMARK   23  A    between atoms: _51  and  _53
REMARK   24  A    between atoms: _53  and  _54
REMARK   25  A    between atoms: _53  and  _56
REMARK   26  A    between atoms: _56  and  _57
REMARK   27  A    between atoms: _59  and  _61
REMARK   28  A    between atoms: _61  and  _62
REMARK   29  A    between atoms: _61  and  _64
REMARK   30  A    between atoms: _64  and  _65
REMARK   31  A    between atoms: _68  and  _70
REMARK   32  A    between atoms: _70  and  _71
REMARK   33  A    between atoms: _70  and  _73
REMARK   34  A    between atoms: _73  and  _74
REMARK   35  A    between atoms: _79  and  _81
REMARK   36  A    between atoms: _81  and  _82
REMARK   37  A    between atoms: _81  and  _84
REMARK   38  A    between atoms: _84  and  _85
REMARK   39  A    between atoms: _85  and  _86
REMARK   40  A    between atoms: _91  and  _93
REMARK   41  A    between atoms: _93  and  _94
REMARK   42  A    between atoms: _93  and  _96
REMARK   43  A    between atoms: _96  and  _97
REMARK   44  A    between atoms: _100  and  _102
REMARK   45  A    between atoms: _102  and  _103
REMARK   46  A    between atoms: _105  and  _107
REMARK   47  A    between atoms: _107  and  _108
REMARK   48  A    between atoms: _107  and  _110
REMARK   49  A    between atoms: _110  and  _111
REMARK   50  A    between atoms: _111  and  _112
REMARK   51  A    between atoms: _115  and  _117
REMARK   52  A    between atoms: _117  and  _118
REMARK   53  A    between atoms: _117  and  _120
REMARK   54  A    between atoms: _120  and  _121
REMARK   55  A    between atoms: _121  and  _122
REMARK   56  A    between atoms: _122  and  _123
REMARK   57  A    between atoms: _132  and  _134
REMARK   58  A    between atoms: _134  and  _135
REMARK   59  A    between atoms: _134  and  _137
REMARK   60  A    between atoms: _137  and  _138
REMARK   61  A    between atoms: _138  and  _139
REMARK   62  A    between atoms: _144  and  _146
REMARK   63  A    between atoms: _146  and  _147
REMARK   64  A    between atoms: _146  and  _149
REMARK   65  A    between atoms: _149  and  _150
REMARK   66  A    between atoms: _153  and  _155
REMARK   67  A    between atoms: _155  and  _156
REMARK   68  A    between atoms: _155  and  _158
REMARK   69  A    between atoms: _158  and  _159
REMARK   70  A    between atoms: _162  and  _164
REMARK   71  A    between atoms: _164  and  _165
REMARK   72  A    between atoms: _164  and  _167
REMARK   73  A    between atoms: _167  and  _168
REMARK   74  A    between atoms: _178  and  _180
REMARK   75  A    between atoms: _180  and  _181
REMARK   76  A    between atoms: _180  and  _183
REMARK   77  A    between atoms: _183  and  _184
REMARK   78  A    between atoms: _184  and  _185
REMARK   79  A    between atoms: _187  and  _189
REMARK   80  A    between atoms: _189  and  _190
REMARK   81  A    between atoms: _189  and  _192
REMARK   82  A    between atoms: _192  and  _193
REMARK   83  A    between atoms: _195  and  _197
REMARK   84  A    between atoms: _197  and  _198
REMARK   85  A    between atoms: _197  and  _200
REMARK   86  A    between atoms: _200  and  _201
REMARK   87  A    between atoms: _204  and  _206
REMARK   88  A    between atoms: _206  and  _207
REMARK   89  A    between atoms: _206  and  _209
REMARK   90  A    between atoms: _209  and  _210
REMARK   91  A    between atoms: _210  and  _211
REMARK   92  A    between atoms: _213  and  _215
REMARK   93  A    between atoms: _215  and  _216
REMARK   94  A    between atoms: _215  and  _218
REMARK   95  A    between atoms: _221  and  _223
REMARK   96  A    between atoms: _223  and  _224
REMARK   97  A    between atoms: _223  and  _226
REMARK   98  A    between atoms: _226  and  _227
REMARK   99  A    between atoms: _233  and  _235
REMARK  100  A    between atoms: _235  and  _236
REMARK  101  A    between atoms: _238  and  _240
REMARK  102  A    between atoms: _240  and  _241
REMARK  103  A    between atoms: _240  and  _243
REMARK  104  A    between atoms: _243  and  _244
REMARK  105  A    between atoms: _247  and  _249
REMARK  106  A    between atoms: _249  and  _250
REMARK  107  A    between atoms: _252  and  _254
REMARK  108  A    between atoms: _254  and  _255
REMARK  109  A    between atoms: _254  and  _257
REMARK  110  A    between atoms: _257  and  _258
REMARK  111  A    between atoms: _258  and  _259
REMARK  112  A    between atoms: _259  and  _260
REMARK  113  A    between atoms: _269  and  _271
REMARK  114  A    between atoms: _271  and  _272
REMARK  115  A    between atoms: _271  and  _274
REMARK  116  A    between atoms: _274  and  _275
REMARK  117  A    between atoms: _277  and  _279
REMARK  118  A    between atoms: _279  and  _280
REMARK  119  A    between atoms: _279  and  _282
REMARK  120  A    between atoms: _282  and  _283
REMARK  121  A    between atoms: _288  and  _289
REMARK  122  A    between atoms: _291  and  _293
REMARK  123  A    between atoms: _293  and  _294
REMARK  124  A    between atoms: _293  and  _296
REMARK  125  A    between atoms: _296  and  _297
REMARK  126  A    between atoms: _303  and  _305
REMARK  127  A    between atoms: _305  and  _306
REMARK  128  A    between atoms: _309  and  _311
REMARK  129  A    between atoms: _311  and  _312
REMARK  130  A    between atoms: _311  and  _314
REMARK  131  A    between atoms: _314  and  _315
REMARK  132  A    between atoms: _318  and  _320
REMARK  133  A    between atoms: _320  and  _321
REMARK  134  A    between atoms: _320  and  _323
REMARK  135  A    between atoms: _323  and  _324
REMARK  136  A    between atoms: _327  and  _329
REMARK  137  A    between atoms: _329  and  _330
REMARK  138  A    between atoms: _329  and  _332
REMARK  139  A    between atoms: _332  and  _333
REMARK  140  A    between atoms: _335  and  _337
REMARK  141  A    between atoms: _337  and  _338
REMARK  142  A    between atoms: _337  and  _340
REMARK  143  A    between atoms: _340  and  _341
REMARK  144  A    between atoms: _343  and  _345
REMARK  145  A    between atoms: _345  and  _346
REMARK  146  A    between atoms: _345  and  _348
REMARK  147  A    between atoms: _348  and  _349
REMARK  148  A    between atoms: _355  and  _357
REMARK  149  A    between atoms: _357  and  _358
REMARK  150  A    between atoms: _357  and  _360
REMARK  151  A    between atoms: _360  and  _361
REMARK  152  A    between atoms: _366  and  _367
REMARK  153  A    between atoms: _369  and  _371
REMARK  154  A    between atoms: _371  and  _372
REMARK  155  A    between atoms: _371  and  _374
REMARK  156  A    between atoms: _374  and  _375
REMARK  157  A    between atoms: _378  and  _380
REMARK  158  A    between atoms: _380  and  _381
REMARK  159  A    between atoms: _380  and  _383
REMARK  160  A    between atoms: _385  and  _387
REMARK  161  A    between atoms: _387  and  _388
REMARK  162  A    between atoms: _387  and  _390
REMARK  163  A    between atoms: _390  and  _391
REMARK  164  A    between atoms: _391  and  _392
REMARK  165  A    between atoms: _394  and  _396
REMARK  166  A    between atoms: _396  and  _397
REMARK  167  A    between atoms: _396  and  _399
REMARK  168  A    between atoms: _399  and  _400
REMARK  169  A    between atoms: _403  and  _405
REMARK  170  A    between atoms: _405  and  _406
REMARK  171  A    between atoms: _405  and  _408
REMARK  172  A    between atoms: _411  and  _413
REMARK  173  A    between atoms: _413  and  _414
REMARK  174  A    between atoms: _413  and  _416
REMARK  175  A    between atoms: _416  and  _417
REMARK  176  A    between atoms: _417  and  _418
REMARK  177  A    between atoms: _423  and  _425
REMARK  178  A    between atoms: _425  and  _426
REMARK  179  A    between atoms: _425  and  _428
REMARK  180  A    between atoms: _428  and  _429
REMARK  181  A    between atoms: _432  and  _434
REMARK  182  A    between atoms: _434  and  _435
REMARK  183  A    between atoms: _434  and  _437
REMARK  184  A    between atoms: _437  and  _438
REMARK  185  A    between atoms: _443  and  _445
REMARK  186  A    between atoms: _445  and  _446
REMARK  187  A    between atoms: _445  and  _448
REMARK  188  A    between atoms: _448  and  _449
REMARK  189  A    between atoms: _452  and  _454
REMARK  190  A    between atoms: _454  and  _455
REMARK  191  A    between atoms: _454  and  _457
REMARK  192  A    between atoms: _457  and  _458
REMARK  193  A    between atoms: _463  and  _464
REMARK  194  A    between atoms: _466  and  _468
REMARK  195  A    between atoms: _468  and  _469
REMARK  196  A    between atoms: _468  and  _471
REMARK  197  A    between atoms: _473  and  _475
REMARK  198  A    between atoms: _475  and  _476
REMARK  199  A    between atoms: _475  and  _478
REMARK  200  A    between atoms: _478  and  _479
REMARK  201  A    between atoms: _482  and  _484
REMARK  202  A    between atoms: _484  and  _485
REMARK  203  A    between atoms: _484  and  _487
REMARK  204  A    between atoms: _487  and  _488
REMARK  205  A    between atoms: _493  and  _495
REMARK  206  A    between atoms: _495  and  _496
REMARK  207  A    between atoms: _495  and  _498
REMARK  208  A    between atoms: _498  and  _499
REMARK  209  A    between atoms: _502  and  _504
REMARK  210  A    between atoms: _504  and  _505
REMARK  211  A    between atoms: _504  and  _507
REMARK  212  A    between atoms: _507  and  _508
REMARK  213  A    between atoms: _514  and  _516
REMARK  214  A    between atoms: _516  and  _517
REMARK  215  A    between atoms: _516  and  _519
REMARK  216  A    between atoms: _522  and  _524
REMARK  217  A    between atoms: _524  and  _525
REMARK  218  A    between atoms: _524  and  _527
REMARK  219  A    between atoms: _527  and  _528
REMARK  220  A    between atoms: _528  and  _529
REMARK  221  A    between atoms: _532  and  _534
REMARK  222  A    between atoms: _534  and  _535
REMARK  223  A    between atoms: _534  and  _537
REMARK  224  A    between atoms: _537  and  _538
REMARK  225  A    between atoms: _545  and  _546
REMARK  226  A    between atoms: _551  and  _553
REMARK  227  A    between atoms: _553  and  _554
REMARK  228  A    between atoms: _553  and  _556
REMARK  229  A    between atoms: _556  and  _557
REMARK  230  A    between atoms: _557  and  _558
REMARK  231  A    between atoms: _561  and  _563
REMARK  232  A    between atoms: _563  and  _564
REMARK  233  A    between atoms: _563  and  _566
REMARK  234  A    between atoms: _566  and  _567
REMARK  235  A    between atoms: _567  and  _568
REMARK  236  A    between atoms: _570  and  _572
REMARK  237  A    between atoms: _572  and  _573
REMARK  238  A    between atoms: _572  and  _575
REMARK  239  A    between atoms: _575  and  _576
REMARK  240  A    between atoms: _576  and  _577
REMARK  241  A    between atoms: _579  and  _581
REMARK  242  A    between atoms: _581  and  _582
REMARK  243  A    between atoms: _581  and  _584
REMARK  244  A    between atoms: _584  and  _585
REMARK  245  A    between atoms: _587  and  _589
REMARK  246  A    between atoms: _589  and  _590
REMARK  247  A    between atoms: _589  and  _592
REMARK  248  A    between atoms: _592  and  _593
REMARK  249  A    between atoms: _593  and  _594
REMARK  250  A    between atoms: _597  and  _599
REMARK  251  A    between atoms: _599  and  _600
REMARK  252  A    between atoms: _599  and  _602
REMARK  253  A    between atoms: _605  and  _607
REMARK  254  A    between atoms: _607  and  _608
REMARK  255  A    between atoms: _607  and  _610
REMARK  256  A    between atoms: _610  and  _611
REMARK  257  A    between atoms: _614  and  _616
REMARK  258  A    between atoms: _616  and  _617
REMARK  259  A    between atoms: _616  and  _619
REMARK  260  A    between atoms: _619  and  _620
REMARK                            x       y       z     vdW  Elec       q    Type
REMARK                         _______ _______ _______ _____ _____    ______ ____
ROOT
ATOM      1  CA  MET A   1      20.491   6.194  10.578  0.00  0.00    +0.134 C 
ENDROOT
BRANCH   1   2
ATOM      2  N   MET A   1      20.649   6.157  12.032  0.00  0.00    -0.239 NA
ATOM      3  H   MET A   1      19.955   6.644  12.635  0.00  0.00    +0.142 HD
ENDBRANCH   1   2
BRANCH   1   4
ATOM      4  C   MET A   1      21.618   6.975   9.896  0.00  0.00    +0.224 C 
ATOM      5  O   MET A   1      22.097   6.592   8.822  0.00  0.00    -0.287 OA
ENDBRANCH   1   4
BRANCH   1   6
ATOM      6  CB  MET A   1      19.122   6.765  10.203  0.00  0.00    +0.037 C 
BRANCH   6   7
ATOM      7  CG  MET A   1      17.971   5.812  10.545  0.00  0.00    +0.059 C 
BRANCH   7   8
ATOM      8  SD  MET A   1      16.345   6.369   9.995  0.00  0.00    -0.139 S 
ATOM      9  CE  MET A   1      15.948   7.656  11.157  0.00  0.00    +0.069 C 
ENDBRANCH   7   8
ENDBRANCH   6   7
ENDBRANCH   1   6
TORSDOF 5
REMARK  Name = ../refined-set-2016/2w8y/2w8y_pocket.pdb
REMARK  260 active torsions:
REMARK  status: ('A' for Active; 'I' for Inactive)
REMARK    1  A    between atoms: _1  and  _3
REMARK    2  A    between atoms: _3  and  _4
REMARK    3  A    between atoms: _3  and  _6
REMARK    4  A    between atoms: _6  and  _7
REMARK    5  A    between atoms: _10  and  _12
REMARK    6  A    between atoms: _12  and  _13
REMARK    7  A    between atoms: _16  and  _18
REMARK    8  A    between atoms: _18  and  _19
REMARK    9  A    between atoms: _18  and  _21
REMARK   10  A    between atoms: _21  and  _22
REMARK   11  A    between atoms: _24  and  _26
REMARK   12  A    between atoms: _26  and  _27
REMARK   13  A    between atoms: _26  and  _29
REMARK   14  A    between atoms: _29  and  _30
REMARK   15  A    between atoms: _33  and  _35
REMARK   16  A    between atoms: _35  and  _36
REMARK   17  A    between atoms: _35  and  _38
REMARK   18  A    between atoms: _38  and  _39
REMARK   19  A    between atoms: _42  and  _44
REMARK   20  A    between atoms: _44  and  _45
REMARK   21  A    between atoms: _44  and  _47
REMARK   22  A    between atoms: _47  and  _48
REMARK   23  A    between atoms: _51  and  _53
REMARK   24  A    between atoms: _53  and  _54
REMARK   25  A    between atoms: _53  and  _56
REMARK   26  A    between atoms: _56  and  _57
REMARK   27  A    between atoms: _59  and  _61
REMARK   28  A    between atoms: _61  and  _62
REMARK   29  A    between atoms: _61  and  _64
REMARK   30  A    between atoms: _64  and  _65
REMARK   31  A    between atoms: _68  and  _70
REMARK   32  A    between atoms: _70  and  _71
REMARK   33  A    between atoms: _70  and  _73
REMARK   34  A    between atoms: _73  and  _74
REMARK   35  A    between atoms: _79  and  _81
REMARK   36  A    between atoms: _81  and  _82
REMARK   37  A    between atoms: _81  and  _84
REMARK   38  A    between atoms: _84  and  _85
REMARK   39  A    between atoms: _85  and  _86
REMARK   40  A    between atoms: _91  and  _93
REMARK   41  A    between atoms: _93  and  _94
REMARK   42  A    between atoms: _93  and  _96
REMARK   43  A    between atoms: _96  and  _97
REMARK   44  A    between atoms: _100  and  _102
REMARK   45  A    between atoms: _102  and  _103
REMARK   46  A    between atoms: _105  and  _107
REMARK   47  A    between atoms: _107  and  _108
REMARK   48  A    between atoms: _107  and  _110
REMARK   49  A    between atoms: _110  and  _111
REMARK   50  A    between atoms: _111  and  _112
REMARK   51  A    between atoms: _115  and  _117
REMARK   52  A    between atoms: _117  and  _118
REMARK   53  A    between atoms: _117  and  _120
REMARK   54  A    between atoms: _120  and  _121
REMARK   55  A    between atoms: _121  and  _122
REMARK   56  A    between atoms: _122  and  _123
REMARK   57  A    between atoms: _132  and  _134
REMARK   58  A    between atoms: _134  and  _135
REMARK   59  A    between atoms: _134  and  _137
REMARK   60  A    between atoms: _137  and  _138
REMARK   61  A    between atoms: _138  and  _139
REMARK   62  A    between atoms: _144  and  _146
REMARK   63  A    between atoms: _146  and  _147
REMARK   64  A    between atoms: _146  and  _149
REMARK   65  A    between atoms: _149  and  _150
REMARK   66  A    between atoms: _153  and  _155
REMARK   67  A    between atoms: _155  and  _156
REMARK   68  A    between atoms: _155  and  _158
REMARK   69  A    between atoms: _158  and  _159
REMARK   70  A    between atoms: _162  and  _164
REMARK   71  A    between atoms: _164  and  _165
REMARK   72  A    between atoms: _164  and  _167
REMARK   73  A    between atoms: _167  and  _168
REMARK   74  A    between atoms: _178  and  _180
REMARK   75  A    between atoms: _180  and  _181
REMARK   76  A    between atoms: _180  and  _183
REMARK   77  A    between atoms: _183  and  _184
REMARK   78  A    between atoms: _184  and  _185
REMARK   79  A    between atoms: _187  and  _189
REMARK   80  A    between atoms: _189  and  _190
REMARK   81  A    between atoms: _189  and  _192
REMARK   82  A    between atoms: _192  and  _193
REMARK   83  A    between atoms: _195  and  _197
REMARK   84  A    between atoms: _197  and  _198
REMARK   85  A    between atoms: _197  and  _200
REMARK   86  A    between atoms: _200  and  _201
REMARK   87  A    between atoms: _204  and  _206
REMARK   88  A    between atoms: _206  and  _207
REMARK   89  A    between atoms: _206  and  _209
REMARK   90  A    between atoms: _209  and  _210
REMARK   91  A    between atoms: _210  and  _211
REMARK   92  A    between atoms: _213  and  _215
REMARK   93  A    between atoms: _215  and  _216
REMARK   94  A    between atoms: _215  and  _218
REMARK   95  A    between atoms: _221  and  _223
REMARK   96  A    between atoms: _223  and  _224
REMARK   97  A    between atoms: _223  and  _226
REMARK   98  A    between atoms: _226  and  _227
REMARK   99  A    between atoms: _233  and  _235
REMARK  100  A    between atoms: _235  and  _236
REMARK  101  A    between atoms: _238  and  _240
REMARK  102  A    between atoms: _240  and  _241
REMARK  103  A    between atoms: _240  and  _243
REMARK  104  A    between atoms: _243  and  _244
REMARK  105  A    between atoms: _247  and  _249
REMARK  106  A    between atoms: _249  and  _250
REMARK  107  A    between atoms: _252  and  _254
REMARK  108  A    between atoms: _254  and  _255
REMARK  109  A    between atoms: _254  and  _257
REMARK  110  A    between atoms: _257  and  _258
REMARK  111  A    between atoms: _258  and  _259
REMARK  112  A    between atoms: _259  and  _260
REMARK  113  A    between atoms: _269  and  _271
REMARK  114  A    between atoms: _271  and  _272
REMARK  115  A    between atoms: _271  and  _274
REMARK  116  A    between atoms: _274  and  _275
REMARK  117  A    between atoms: _277  and  _279
REMARK  118  A    between atoms: _279  and  _280
REMARK  119  A    between atoms: _279  and  _282
REMARK  120  A    between atoms: _282  and  _283
REMARK  121  A    between atoms: _288  and  _289
REMARK  122  A    between atoms: _291  and  _293
REMARK  123  A    between atoms: _293  and  _294
REMARK  124  A    between atoms: _293  and  _296
REMARK  125  A    between atoms: _296  and  _297
REMARK  126  A    between atoms: _303  and  _305
REMARK  127  A    between atoms: _305  and  _306
REMARK  128  A    between atoms: _309  and  _311
REMARK  129  A    between atoms: _311  and  _312
REMARK  130  A    between atoms: _311  and  _314
REMARK  131  A    between atoms: _314  and  _315
REMARK  132  A    between atoms: _318  and  _320
REMARK  133  A    between atoms: _320  and  _321
REMARK  134  A    between atoms: _320  and  _323
REMARK  135  A    between atoms: _323  and  _324
REMARK  136  A    between atoms: _327  and  _329
REMARK  137  A    between atoms: _329  and  _330
REMARK  138  A    between atoms: _329  and  _332
REMARK  139  A    between atoms: _332  and  _333
REMARK  140  A    between atoms: _335  and  _337
REMARK  141  A    between atoms: _337  and  _338
REMARK  142  A    between atoms: _337  and  _340
REMARK  143  A    between atoms: _340  and  _341
REMARK  144  A    between atoms: _343  and  _345
REMARK  145  A    between atoms: _345  and  _346
REMARK  146  A    between atoms: _345  and  _348
REMARK  147  A    between atoms: _348  and  _349
REMARK  148  A    between atoms: _355  and  _357
REMARK  149  A    between atoms: _357  and  _358
REMARK  150  A    between atoms: _357  and  _360
REMARK  151  A    between atoms: _360  and  _361
REMARK  152  A    between atoms: _366  and  _367
REMARK  153  A    between atoms: _369  and  _371
REMARK  154  A    between atoms: _371  and  _372
REMARK  155  A    between atoms: _371  and  _374
REMARK  156  A    between atoms: _374  and  _375
REMARK  157  A    between atoms: _378  and  _380
REMARK  158  A    between atoms: _380  and  _381
REMARK  159  A    between atoms: _380  and  _383
REMARK  160  A    between atoms: _385  and  _387
REMARK  161  A    between atoms: _387  and  _388
REMARK  162  A    between atoms: _387  and  _390
REMARK  163  A    between atoms: _390  and  _391
REMARK  164  A    between atoms: _391  and  _392
REMARK  165  A    between atoms: _394  and  _396
REMARK  166  A    between atoms: _396  and  _397
REMARK  167  A    between atoms: _396  and  _399
REMARK  168  A    between atoms: _399  and  _400
REMARK  169  A    between atoms: _403  and  _405
REMARK  170  A    between atoms: _405  and  _406
REMARK  171  A    between atoms: _405  and  _408
REMARK  172  A    between atoms: _411  and  _413
REMARK  173  A    between atoms: _413  and  _414
REMARK  174  A    between atoms: _413  and  _416
REMARK  175  A    between atoms: _416  and  _417
REMARK  176  A    between atoms: _417  and  _418
REMARK  177  A    between atoms: _423  and  _425
REMARK  178  A    between atoms: _425  and  _426
REMARK  179  A    between atoms: _425  and  _428
REMARK  180  A    between atoms: _428  and  _429
REMARK  181  A    between atoms: _432  and  _434
REMARK  182  A    between atoms: _434  and  _435
REMARK  183  A    between atoms: _434  and  _437
REMARK  184  A    between atoms: _437  and  _438
REMARK  185  A    between atoms: _443  and  _445
REMARK  186  A    between atoms: _445  and  _446
REMARK  187  A    between atoms: _445  and  _448
REMARK  188  A    between atoms: _448  and  _449
REMARK  189  A    between atoms: _452  and  _454
REMARK  190  A    between atoms: _454  and  _455
REMARK  191  A    between atoms: _454  and  _457
REMARK  192  A    between atoms: _457  and  _458
REMARK  193  A    between atoms: _463  and  _464
REMARK  194  A    between atoms: _466  and  _468
REMARK  195  A    between atoms: _468  and  _469
REMARK  196  A    between atoms: _468  and  _471
REMARK  197  A    between atoms: _473  and  _475
REMARK  198  A    between atoms: _475  and  _476
REMARK  199  A    between atoms: _475  and  _478
REMARK  200  A    between atoms: _478  and  _479
REMARK  201  A    between atoms: _482  and  _484
REMARK  202  A    between atoms: _484  and  _485
REMARK  203  A    between atoms: _484  and  _487
REMARK  204  A    between atoms: _487  and  _488
REMARK  205  A    between atoms: _493  and  _495
REMARK  206  A    between atoms: _495  and  _496
REMARK  207  A    between atoms: _495  and  _498
REMARK  208  A    between atoms: _498  and  _499
REMARK  209  A    between atoms: _502  and  _504
REMARK  210  A    between atoms: _504  and  _505
REMARK  211  A    between atoms: _504  and  _507
REMARK  212  A    between atoms: _507  and  _508
REMARK  213  A    between atoms: _514  and  _516
REMARK  214  A    between atoms: _516  and  _517
REMARK  215  A    between atoms: _516  and  _519
REMARK  216  A    between atoms: _522  and  _524
REMARK  217  A    between atoms: _524  and  _525
REMARK  218  A    between atoms: _524  and  _527
REMARK  219  A    between atoms: _527  and  _528
REMARK  220  A    between atoms: _528  and  _529
REMARK  221  A    between atoms: _532  and  _534
REMARK  222  A    between atoms: _534  and  _535
REMARK  223  A    between atoms: _534  and  _537
REMARK  224  A    between atoms: _537  and  _538
REMARK  225  A    between atoms: _545  and  _546
REMARK  226  A    between atoms: _551  and  _553
REMARK  227  A    between atoms: _553  and  _554
REMARK  228  A    between atoms: _553  and  _556
REMARK  229  A    between atoms: _556  and  _557
REMARK  230  A    between atoms: _557  and  _558
REMARK  231  A    between atoms: _561  and  _563
REMARK  232  A    between atoms: _563  and  _564
REMARK  233  A    between atoms: _563  and  _566
REMARK  234  A    between atoms: _566  and  _567
REMARK  235  A    between atoms: _567  and  _568
REMARK  236  A    between atoms: _570  and  _572
REMARK  237  A    between atoms: _572  and  _573
REMARK  238  A    between atoms: _572  and  _575
REMARK  239  A    between atoms: _575  and  _576
REMARK  240  A    between atoms: _576  and  _577
REMARK  241  A    between atoms: _579  and  _581
REMARK  242  A    between atoms: _581  and  _582
REMARK  243  A    between atoms: _581  and  _584
REMARK  244  A    between atoms: _584  and  _585
REMARK  245  A    between atoms: _587  and  _589
REMARK  246  A    between atoms: _589  and  _590
REMARK  247  A    between atoms: _589  and  _592
REMARK  248  A    between atoms: _592  and  _593
REMARK  249  A    between atoms: _593  and  _594
REMARK  250  A    between atoms: _597  and  _599
REMARK  251  A    between atoms: _599  and  _600
REMARK  252  A    between atoms: _599  and  _602
REMARK  253  A    between atoms: _605  and  _607
REMARK  254  A    between atoms: _607  and  _608
REMARK  255  A    between atoms: _607  and  _610
REMARK  256  A    between atoms: _610  and  _611
REMARK  257  A    between atoms: _614  and  _616
REMARK  258  A    between atoms: _616  and  _617
REMARK  259  A    between atoms: _616  and  _619
REMARK  260  A    between atoms: _619  and  _620
REMARK                            x       y       z     vdW  Elec       q    Type
REMARK                         _______ _______ _______ _____ _____    ______ ____
ROOT
ATOM      1  C   LEU A   1      19.771  -1.560  12.038  0.00  0.00    +0.238 C 
ATOM      2  O   LEU A   1      18.911  -0.984  12.718  0.00  0.00    -0.274 OA
ATOM      3  N   VAL A   2      19.472  -2.334  11.006  0.00  0.00    -0.298 N 
ATOM      4  H   VAL A   2      20.242  -2.810  10.494  0.00  0.00    +0.150 HD
ENDROOT
BRANCH   1   5
ATOM      5  CA  LEU A   1      21.255  -1.455  12.374  0.00  0.00    +0.145 C 
BRANCH   5   6
ATOM      6  N   LEU A   1      21.849  -2.799  12.427  0.00  0.00    -0.238 NA
ATOM      7  H   LEU A   1      22.640  -3.022  11.790  0.00  0.00    +0.142 HD
ENDBRANCH   5   6
BRANCH   5   8
ATOM      8  CB  LEU A   1      21.983  -0.596  11.327  0.00  0.00    +0.026 C 
BRANCH   8   9
ATOM      9  CG  LEU A   1      21.670   0.904  11.272  0.00  0.00    +0.002 C 
ATOM     10  CD2 LEU A   1      22.800   1.677  10.603  0.00  0.00    +0.000 C 
ATOM     11  CD1 LEU A   1      20.368   1.175  10.555  0.00  0.00    +0.000 C 
ENDBRANCH   8   9
ENDBRANCH   5   8
ENDBRANCH   1   5
BRANCH   3  12
ATOM     12  CA  VAL A   2      18.089  -2.541  10.562  0.00  0.00    +0.137 C 
BRANCH  12  13
ATOM     13  CB  VAL A   2      18.054  -3.335   9.232  0.00  0.00    +0.026 C 
ATOM     14  CG2 VAL A   2      16.653  -3.867   8.926  0.00  0.00    +0.002 C 
ATOM     15  CG1 VAL A   2      18.545  -2.443   8.107  0.00  0.00    +0.002 C 
ENDBRANCH  12  13
BRANCH  12  16
ATOM     16  C   VAL A   2      17.199  -3.178  11.637  0.00  0.00    +0.227 C 
ATOM     17  O   VAL A   2      16.017  -2.838  11.757  0.00  0.00    -0.286 OA
ENDBRANCH  12  16
ENDBRANCH   3  12
TORSDOF 7
REMARK  Name = ../refined-set-2016/2w8y/2w8y_pocket.pdb
REMARK  260 active torsions:
REMARK  status: ('A' for Active; 'I' for Inactive)
REMARK    1  A    between atoms: _1  and  _3
REMARK    2  A    between atoms: _3  and  _4
REMARK    3  A    between atoms: _3  and  _6
REMARK    4  A    between atoms: _6  and  _7
REMARK    5  A    between atoms: _10  and  _12
REMARK    6  A    between atoms: _12  and  _13
REMARK    7  A    between atoms: _16  and  _18
REMARK    8  A    between atoms: _18  and  _19
REMARK    9  A    between atoms: _18  and  _21
REMARK   10  A    between atoms: _21  and  _22
REMARK   11  A    between atoms: _24  and  _26
REMARK   12  A    between atoms: _26  and  _27
REMARK   13  A    between atoms: _26  and  _29
REMARK   14  A    between atoms: _29  and  _30
REMARK   15  A    between atoms: _33  and  _35
REMARK   16  A    between atoms: _35  and  _36
REMARK   17  A    between atoms: _35  and  _38
REMARK   18  A    between atoms: _38  and  _39
REMARK   19  A    between atoms: _42  and  _44
REMARK   20  A    between atoms: _44  and  _45
REMARK   21  A    between atoms: _44  and  _47
REMARK   22  A    between atoms: _47  and  _48
REMARK   23  A    between atoms: _51  and  _53
REMARK   24  A    between atoms: _53  and  _54
REMARK   25  A    between atoms: _53  and  _56
REMARK   26  A    between atoms: _56  and  _57
REMARK   27  A    between atoms: _59  and  _61
REMARK   28  A    between atoms: _61  and  _62
REMARK   29  A    between atoms: _61  and  _64
REMARK   30  A    between atoms: _64  and  _65
REMARK   31  A    between atoms: _68  and  _70
REMARK   32  A    between atoms: _70  and  _71
REMARK   33  A    between atoms: _70  and  _73
REMARK   34  A    between atoms: _73  and  _74
REMARK   35  A    between atoms: _79  and  _81
REMARK   36  A    between atoms: _81  and  _82
REMARK   37  A    between atoms: _81  and  _84
REMARK   38  A    between atoms: _84  and  _85
REMARK   39  A    between atoms: _85  and  _86
REMARK   40  A    between atoms: _91  and  _93
REMARK   41  A    between atoms: _93  and  _94
REMARK   42  A    between atoms: _93  and  _96
REMARK   43  A    between atoms: _96  and  _97
REMARK   44  A    between atoms: _100  and  _102
REMARK   45  A    between atoms: _102  and  _103
REMARK   46  A    between atoms: _105  and  _107
REMARK   47  A    between atoms: _107  and  _108
REMARK   48  A    between atoms: _107  and  _110
REMARK   49  A    between atoms: _110  and  _111
REMARK   50  A    between atoms: _111  and  _112
REMARK   51  A    between atoms: _115  and  _117
REMARK   52  A    between atoms: _117  and  _118
REMARK   53  A    between atoms: _117  and  _120
REMARK   54  A    between atoms: _120  and  _121
REMARK   55  A    between atoms: _121  and  _122
REMARK   56  A    between atoms: _122  and  _123
REMARK   57  A    between atoms: _132  and  _134
REMARK   58  A    between atoms: _134  and  _135
REMARK   59  A    between atoms: _134  and  _137
REMARK   60  A    between atoms: _137  and  _138
REMARK   61  A    between atoms: _138  and  _139
REMARK   62  A    between atoms: _144  and  _146
REMARK   63  A    between atoms: _146  and  _147
REMARK   64  A    between atoms: _146  and  _149
REMARK   65  A    between atoms: _149  and  _150
REMARK   66  A    between atoms: _153  and  _155
REMARK   67  A    between atoms: _155  and  _156
REMARK   68  A    between atoms: _155  and  _158
REMARK   69  A    between atoms: _158  and  _159
REMARK   70  A    between atoms: _162  and  _164
REMARK   71  A    between atoms: _164  and  _165
REMARK   72  A    between atoms: _164  and  _167
REMARK   73  A    between atoms: _167  and  _168
REMARK   74  A    between atoms: _178  and  _180
REMARK   75  A    between atoms: _180  and  _181
REMARK   76  A    between atoms: _180  and  _183
REMARK   77  A    between atoms: _183  and  _184
REMARK   78  A    between atoms: _184  and  _185
REMARK   79  A    between atoms: _187  and  _189
REMARK   80  A    between atoms: _189  and  _190
REMARK   81  A    between atoms: _189  and  _192
REMARK   82  A    between atoms: _192  and  _193
REMARK   83  A    between atoms: _195  and  _197
REMARK   84  A    between atoms: _197  and  _198
REMARK   85  A    between atoms: _197  and  _200
REMARK   86  A    between atoms: _200  and  _201
REMARK   87  A    between atoms: _204  and  _206
REMARK   88  A    between atoms: _206  and  _207
REMARK   89  A    between atoms: _206  and  _209
REMARK   90  A    between atoms: _209  and  _210
REMARK   91  A    between atoms: _210  and  _211
REMARK   92  A    between atoms: _213  and  _215
REMARK   93  A    between atoms: _215  and  _216
REMARK   94  A    between atoms: _215  and  _218
REMARK   95  A    between atoms: _221  and  _223
REMARK   96  A    between atoms: _223  and  _224
REMARK   97  A    between atoms: _223  and  _226
REMARK   98  A    between atoms: _226  and  _227
REMARK   99  A    between atoms: _233  and  _235
REMARK  100  A    between atoms: _235  and  _236
REMARK  101  A    between atoms: _238  and  _240
REMARK  102  A    between atoms: _240  and  _241
REMARK  103  A    between atoms: _240  and  _243
REMARK  104  A    between atoms: _243  and  _244
REMARK  105  A    between atoms: _247  and  _249
REMARK  106  A    between atoms: _249  and  _250
REMARK  107  A    between atoms: _252  and  _254
REMARK  108  A    between atoms: _254  and  _255
REMARK  109  A    between atoms: _254  and  _257
REMARK  110  A    between atoms: _257  and  _258
REMARK  111  A    between atoms: _258  and  _259
REMARK  112  A    between atoms: _259  and  _260
REMARK  113  A    between atoms: _269  and  _271
REMARK  114  A    between atoms: _271  and  _272
REMARK  115  A    between atoms: _271  and  _274
REMARK  116  A    between atoms: _274  and  _275
REMARK  117  A    between atoms: _277  and  _279
REMARK  118  A    between atoms: _279  and  _280
REMARK  119  A    between atoms: _279  and  _282
REMARK  120  A    between atoms: _282  and  _283
REMARK  121  A    between atoms: _288  and  _289
REMARK  122  A    between atoms: _291  and  _293
REMARK  123  A    between atoms: _293  and  _294
REMARK  124  A    between atoms: _293  and  _296
REMARK  125  A    between atoms: _296  and  _297
REMARK  126  A    between atoms: _303  and  _305
REMARK  127  A    between atoms: _305  and  _306
REMARK  128  A    between atoms: _309  and  _311
REMARK  129  A    between atoms: _311  and  _312
REMARK  130  A    between atoms: _311  and  _314
REMARK  131  A    between atoms: _314  and  _315
REMARK  132  A    between atoms: _318  and  _320
REMARK  133  A    between atoms: _320  and  _321
REMARK  134  A    between atoms: _320  and  _323
REMARK  135  A    between atoms: _323  and  _324
REMARK  136  A    between atoms: _327  and  _329
REMARK  137  A    between atoms: _329  and  _330
REMARK  138  A    between atoms: _329  and  _332
REMARK  139  A    between atoms: _332  and  _333
REMARK  140  A    between atoms: _335  and  _337
REMARK  141  A    between atoms: _337  and  _338
REMARK  142  A    between atoms: _337  and  _340
REMARK  143  A    between atoms: _340  and  _341
REMARK  144  A    between atoms: _343  and  _345
REMARK  145  A    between atoms: _345  and  _346
REMARK  146  A    between atoms: _345  and  _348
REMARK  147  A    between atoms: _348  and  _349
REMARK  148  A    between atoms: _355  and  _357
REMARK  149  A    between atoms: _357  and  _358
REMARK  150  A    between atoms: _357  and  _360
REMARK  151  A    between atoms: _360  and  _361
REMARK  152  A    between atoms: _366  and  _367
REMARK  153  A    between atoms: _369  and  _371
REMARK  154  A    between atoms: _371  and  _372
REMARK  155  A    between atoms: _371  and  _374
REMARK  156  A    between atoms: _374  and  _375
REMARK  157  A    between atoms: _378  and  _380
REMARK  158  A    between atoms: _380  and  _381
REMARK  159  A    between atoms: _380  and  _383
REMARK  160  A    between atoms: _385  and  _387
REMARK  161  A    between atoms: _387  and  _388
REMARK  162  A    between atoms: _387  and  _390
REMARK  163  A    between atoms: _390  and  _391
REMARK  164  A    between atoms: _391  and  _392
REMARK  165  A    between atoms: _394  and  _396
REMARK  166  A    between atoms: _396  and  _397
REMARK  167  A    between atoms: _396  and  _399
REMARK  168  A    between atoms: _399  and  _400
REMARK  169  A    between atoms: _403  and  _405
REMARK  170  A    between atoms: _405  and  _406
REMARK  171  A    between atoms: _405  and  _408
REMARK  172  A    between atoms: _411  and  _413
REMARK  173  A    between atoms: _413  and  _414
REMARK  174  A    between atoms: _413  and  _416
REMARK  175  A    between atoms: _416  and  _417
REMARK  176  A    between atoms: _417  and  _418
REMARK  177  A    between atoms: _423  and  _425
REMARK  178  A    between atoms: _425  and  _426
REMARK  179  A    between atoms: _425  and  _428
REMARK  180  A    between atoms: _428  and  _429
REMARK  181  A    between atoms: _432  and  _434
REMARK  182  A    between atoms: _434  and  _435
REMARK  183  A    between atoms: _434  and  _437
REMARK  184  A    between atoms: _437  and  _438
REMARK  185  A    between atoms: _443  and  _445
REMARK  186  A    between atoms: _445  and  _446
REMARK  187  A    between atoms: _445  and  _448
REMARK  188  A    between atoms: _448  and  _449
REMARK  189  A    between atoms: _452  and  _454
REMARK  190  A    between atoms: _454  and  _455
REMARK  191  A    between atoms: _454  and  _457
REMARK  192  A    between atoms: _457  and  _458
REMARK  193  A    between atoms: _463  and  _464
REMARK  194  A    between atoms: _466  and  _468
REMARK  195  A    between atoms: _468  and  _469
REMARK  196  A    between atoms: _468  and  _471
REMARK  197  A    between atoms: _473  and  _475
REMARK  198  A    between atoms: _475  and  _476
REMARK  199  A    between atoms: _475  and  _478
REMARK  200  A    between atoms: _478  and  _479
REMARK  201  A    between atoms: _482  and  _484
REMARK  202  A    between atoms: _484  and  _485
REMARK  203  A    between atoms: _484  and  _487
REMARK  204  A    between atoms: _487  and  _488
REMARK  205  A    between atoms: _493  and  _495
REMARK  206  A    between atoms: _495  and  _496
REMARK  207  A    between atoms: _495  and  _498
REMARK  208  A    between atoms: _498  and  _499
REMARK  209  A    between atoms: _502  and  _504
REMARK  210  A    between atoms: _504  and  _505
REMARK  211  A    between atoms: _504  and  _507
REMARK  212  A    between atoms: _507  and  _508
REMARK  213  A    between atoms: _514  and  _516
REMARK  214  A    between atoms: _516  and  _517
REMARK  215  A    between atoms: _516  and  _519
REMARK  216  A    between atoms: _522  and  _524
REMARK  217  A    between atoms: _524  and  _525
REMARK  218  A    between atoms: _524  and  _527
REMARK  219  A    between atoms: _527  and  _528
REMARK  220  A    between atoms: _528  and  _529
REMARK  221  A    between atoms: _532  and  _534
REMARK  222  A    between atoms: _534  and  _535
REMARK  223  A    between atoms: _534  and  _537
REMARK  224  A    between atoms: _537  and  _538
REMARK  225  A    between atoms: _545  and  _546
REMARK  226  A    between atoms: _551  and  _553
REMARK  227  A    between atoms: _553  and  _554
REMARK  228  A    between atoms: _553  and  _556
REMARK  229  A    between atoms: _556  and  _557
REMARK  230  A    between atoms: _557  and  _558
REMARK  231  A    between atoms: _561  and  _563
REMARK  232  A    between atoms: _563  and  _564
REMARK  233  A    between atoms: _563  and  _566
REMARK  234  A    between atoms: _566  and  _567
REMARK  235  A    between atoms: _567  and  _568
REMARK  236  A    between atoms: _570  and  _572
REMARK  237  A    between atoms: _572  and  _573
REMARK  238  A    between atoms: _572  and  _575
REMARK  239  A    between atoms: _575  and  _576
REMARK  240  A    between atoms: _576  and  _577
REMARK  241  A    between atoms: _579  and  _581
REMARK  242  A    between atoms: _581  and  _582
REMARK  243  A    between atoms: _581  and  _584
REMARK  244  A    between atoms: _584  and  _585
REMARK  245  A    between atoms: _587  and  _589
REMARK  246  A    between atoms: _589  and  _590
REMARK  247  A    between atoms: _589  and  _592
REMARK  248  A    between atoms: _592  and  _593
REMARK  249  A    between atoms: _593  and  _594
REMARK  250  A    between atoms: _597  and  _599
REMARK  251  A    between atoms: _599  and  _600
REMARK  252  A    between atoms: _599  and  _602
REMARK  253  A    between atoms: _605  and  _607
REMARK  254  A    between atoms: _607  and  _608
REMARK  255  A    between atoms: _607  and  _610
REMARK  256  A    between atoms: _610  and  _611
REMARK  257  A    between atoms: _614  and  _616
REMARK  258  A    between atoms: _616  and  _617
REMARK  259  A    between atoms: _616  and  _619
REMARK  260  A    between atoms: _619  and  _620
REMARK                            x       y       z     vdW  Elec       q    Type
REMARK                         _______ _______ _______ _____ _____    ______ ____
ROOT
ATOM      1  CA  TYR A   5      11.238   1.216  16.537  0.00  0.00    +0.153 C 
ENDROOT
BRANCH   1   2
ATOM      2  C   TYR A   5       9.943   1.283  15.732  0.00  0.00    +0.241 C 
ATOM      3  O   TYR A   5       8.921   1.779  16.213  0.00  0.00    -0.273 OA
ATOM      4  N   CYS A   6      10.007   0.780  14.506  0.00  0.00    -0.296 N 
ATOM      5  H   CYS A   6      10.901   0.359  14.183  0.00  0.00    +0.150 HD
BRANCH   4   6
ATOM      6  CA  CYS A   6       8.875   0.796  13.601  0.00  0.00    +0.160 C 
BRANCH   6   7
ATOM      7  C   CYS A   6       7.708   0.006  14.180  0.00  0.00    +0.242 C 
ATOM      8  N   LEU A   7       7.986  -1.202  14.664  0.00  0.00    -0.297 N 
ATOM      9  H   LEU A   7       8.969  -1.543  14.661  0.00  0.00    +0.150 HD
ATOM     10  O   CYS A   6       6.578   0.494  14.211  0.00  0.00    -0.273 OA
BRANCH   8  11
ATOM     11  CA  LEU A   7       6.930  -2.053  15.198  0.00  0.00    +0.149 C 
BRANCH  11  12
ATOM     12  C   LEU A   7       6.315  -1.430  16.442  0.00  0.00    +0.241 C 
ATOM     13  N   ASN A   8       7.152  -0.915  17.345  0.00  0.00    -0.297 N 
ATOM     14  H   ASN A   8       8.179  -1.012  17.210  0.00  0.00    +0.150 HD
ATOM     15  O   LEU A   7       5.096  -1.401  16.572  0.00  0.00    -0.273 OA
BRANCH  13  16
ATOM     16  CA  ASN A   8       6.640  -0.215  18.523  0.00  0.00    +0.158 C 
BRANCH  16  17
ATOM     17  C   ASN A   8       5.762   0.970  18.116  0.00  0.00    +0.241 C 
ATOM     18  O   ASN A   8       4.681   1.156  18.667  0.00  0.00    -0.273 OA
ATOM     19  N   THR A   9       6.220   1.757  17.140  0.00  0.00    -0.295 N 
ATOM     20  H   THR A   9       7.132   1.540  16.690  0.00  0.00    +0.150 HD
BRANCH  19  21
ATOM     21  CA  THR A   9       5.454   2.919  16.697  0.00  0.00    +0.176 C 
BRANCH  21  22
ATOM     22  C   THR A   9       4.103   2.503  16.110  0.00  0.00    +0.243 C 
ATOM     23  O   THR A   9       3.099   3.182  16.318  0.00  0.00    -0.273 OA
ATOM     24  N   PHE A  10       4.095   1.382  15.392  0.00  0.00    -0.298 N 
ATOM     25  H   PHE A  10       4.987   0.861  15.275  0.00  0.00    +0.150 HD
BRANCH  24  26
ATOM     26  CA  PHE A  10       2.889   0.852  14.762  0.00  0.00    +0.141 C 
BRANCH  26  27
ATOM     27  C   PHE A  10       1.857   0.463  15.813  0.00  0.00    +0.227 C 
ATOM     28  O   PHE A  10       0.704   0.892  15.757  0.00  0.00    -0.286 OA
ENDBRANCH  26  27
BRANCH  26  29
ATOM     29  CB  PHE A  10       3.253  -0.358  13.893  0.00  0.00    +0.054 C 
BRANCH  29  30
ATOM     30  CG  PHE A  10       2.081  -1.003  13.214  0.00  0.00    -0.020 A 
ATOM     31  CD2 PHE A  10       1.545  -2.187  13.699  0.00  0.00    -0.004 A 
ATOM     32  CE2 PHE A  10       0.461  -2.798  13.062  0.00  0.00    -0.000 A 
ATOM     33  CZ  PHE A  10      -0.089  -2.227  11.923  0.00  0.00    -0.000 A 
ATOM     34  CE1 PHE A  10       0.446  -1.050  11.420  0.00  0.00    -0.000 A 
ATOM     35  CD1 PHE A  10       1.526  -0.440  12.069  0.00  0.00    -0.004 A 
ENDBRANCH  29  30
ENDBRANCH  26  29
ENDBRANCH  24  26
ENDBRANCH  21  22
BRANCH  21  36
ATOM     36  CB  THR A   9       6.227   3.759  15.678  0.00  0.00    +0.137 C 
ATOM     37  CG2 THR A   9       5.415   4.993  15.255  0.00  0.00    +0.034 C 
BRANCH  36  38
ATOM     38  OG1 THR A   9       7.450   4.204  16.269  0.00  0.00    -0.382 OA
ATOM     39  HG1 THR A   9       7.992   3.419  16.534  0.00  0.00    +0.210 HD
ENDBRANCH  36  38
ENDBRANCH  21  36
ENDBRANCH  19  21
ENDBRANCH  16  17
BRANCH  16  40
ATOM     40  CB  ASN A   8       7.781   0.275  19.425  0.00  0.00    +0.114 C 
BRANCH  40  41
ATOM     41  CG  ASN A   8       8.427  -0.847  20.231  0.00  0.00    +0.222 C 
ATOM     42  ND2 ASN A   8       7.638  -1.823  20.629  0.00  0.00    -0.329 N 
ATOM     43 HD21 ASN A   8       8.028  -2.616  21.178  0.00  0.00    +0.145 HD
ATOM     44 HD22 ASN A   8       6.625  -1.801  20.394  0.00  0.00    +0.145 HD
ATOM     45  OD1 ASN A   8       9.633  -0.826  20.483  0.00  0.00    -0.275 OA
ENDBRANCH  40  41
ENDBRANCH  16  40
ENDBRANCH  13  16
ENDBRANCH  11  12
BRANCH  11  46
ATOM     46  CB  LEU A   7       7.446  -3.464  15.505  0.00  0.00    +0.029 C 
BRANCH  46  47
ATOM     47  CG  LEU A   7       6.364  -4.439  15.952  0.00  0.00    +0.002 C 
ATOM     48  CD2 LEU A   7       6.935  -5.843  16.190  0.00  0.00    +0.000 C 
ATOM     49  CD1 LEU A   7       5.248  -4.468  14.915  0.00  0.00    +0.000 C 
ENDBRANCH  46  47
ENDBRANCH  11  46
ENDBRANCH   8  11
ENDBRANCH   6   7
BRANCH   6  50
ATOM     50  CB  CYS A   6       9.286   0.226  12.237  0.00  0.00    +0.098 C 
ATOM     51  SG  CYS A   6       7.938   0.068  11.076  0.00  0.00    -0.080 S 
ENDBRANCH   6  50
ENDBRANCH   4   6
ENDBRANCH   1   2
BRANCH   1  54
ATOM     52  C   LEU A   4      11.152  -1.218  16.782  0.00  0.00    +0.241 C 
ATOM     53  O   LEU A   4      10.013  -1.198  17.248  0.00  0.00    -0.273 OA
ATOM     54  N   TYR A   5      11.826  -0.120  16.450  0.00  0.00    -0.297 N 
ATOM     55  H   TYR A   5      12.806  -0.215  16.117  0.00  0.00    +0.150 HD
BRANCH  52  56
ATOM     56  CA  LEU A   4      11.871  -2.549  16.553  0.00  0.00    +0.149 C 
BRANCH  56  58
ATOM     57  C   HIS A   3      11.701  -2.604  14.111  0.00  0.00    +0.241 C 
ATOM     58  N   LEU A   4      12.456  -2.603  15.209  0.00  0.00    -0.297 N 
ATOM     59  H   LEU A   4      13.491  -2.642  15.110  0.00  0.00    +0.150 HD
ATOM     60  O   HIS A   3      10.476  -2.588  14.158  0.00  0.00    -0.273 OA
BRANCH  57  61
ATOM     61  CA  HIS A   3      12.431  -2.690  12.757  0.00  0.00    +0.155 C 
BRANCH  61  64
ATOM     62  C   LEU A   2      13.501  -0.504  12.913  0.00  0.00    +0.241 C 
ATOM     63  O   LEU A   2      12.418   0.060  13.053  0.00  0.00    -0.273 OA
ATOM     64  N   HIS A   3      13.607  -1.817  12.734  0.00  0.00    -0.297 N 
ATOM     65  H   HIS A   3      14.546  -2.234  12.574  0.00  0.00    +0.150 HD
BRANCH  62  66
ATOM     66  CA  LEU A   2      14.797   0.295  12.948  0.00  0.00    +0.149 C 
BRANCH  66  69
ATOM     67  C   GLN A   1      15.795  -0.550  15.029  0.00  0.00    +0.238 C 
ATOM     68  O   GLN A   1      14.904  -0.072  15.746  0.00  0.00    -0.274 OA
ATOM     69  N   LEU A   2      15.828  -0.413  13.706  0.00  0.00    -0.297 N 
ATOM     70  H   LEU A   2      16.626  -0.830  13.185  0.00  0.00    +0.150 HD
BRANCH  67  71
ATOM     71  CA  GLN A   1      16.946  -1.358  15.646  0.00  0.00    +0.145 C 
BRANCH  71  72
ATOM     72  N   GLN A   1      17.356  -2.492  14.784  0.00  0.00    -0.238 NA
ATOM     73  H   GLN A   1      18.315  -2.504  14.381  0.00  0.00    +0.142 HD
ENDBRANCH  71  72
BRANCH  71  74
ATOM     74  CB  GLN A   1      18.120  -0.413  15.942  0.00  0.00    +0.036 C 
BRANCH  74  75
ATOM     75  CG  GLN A   1      19.259  -1.017  16.760  0.00  0.00    +0.087 C 
BRANCH  75  76
ATOM     76  CD  GLN A   1      20.503  -0.125  16.758  0.00  0.00    +0.219 C 
ATOM     77  OE1 GLN A   1      20.527   0.931  17.390  0.00  0.00    -0.275 OA
ATOM     78  NE2 GLN A   1      21.540  -0.551  16.037  0.00  0.00    -0.329 N 
ATOM     79 HE21 GLN A   1      22.411   0.015  15.994  0.00  0.00    +0.145 HD
ATOM     80 HE22 GLN A   1      21.478  -1.450  15.518  0.00  0.00    +0.145 HD
ENDBRANCH  75  76
ENDBRANCH  74  75
ENDBRANCH  71  74
ENDBRANCH  67  71
ENDBRANCH  66  69
BRANCH  66  81
ATOM     81  CB  LEU A   2      15.268   0.586  11.511  0.00  0.00    +0.029 C 
BRANCH  81  82
ATOM     82  CG  LEU A   2      16.570   1.381  11.318  0.00  0.00    +0.002 C 
ATOM     83  CD2 LEU A   2      16.636   2.590  12.204  0.00  0.00    +0.000 C 
ATOM     84  CD1 LEU A   2      16.737   1.786   9.859  0.00  0.00    +0.000 C 
ENDBRANCH  81  82
ENDBRANCH  66  81
ENDBRANCH  62  66
ENDBRANCH  61  64
BRANCH  61  85
ATOM     85  CB  HIS A   3      12.813  -4.155  12.512  0.00  0.00    +0.076 C 
BRANCH  85  86
ATOM     86  CG  HIS A   3      12.983  -4.535  11.069  0.00  0.00    +0.082 A 
ATOM     87  ND1 HIS A   3      13.816  -5.562  10.677  0.00  0.00    -0.227 NA
ATOM     88  CE1 HIS A   3      13.770  -5.693   9.363  0.00  0.00    +0.199 A 
ATOM     89  NE2 HIS A   3      12.928  -4.794   8.886  0.00  0.00    -0.221 NA
ATOM     90  CD2 HIS A   3      12.423  -4.056   9.932  0.00  0.00    +0.115 A 
ENDBRANCH  85  86
ENDBRANCH  61  85
ENDBRANCH  57  61
ENDBRANCH  56  58
BRANCH  56  91
ATOM     91  CB  LEU A   4      12.941  -2.773  17.630  0.00  0.00    +0.029 C 
BRANCH  91  92
ATOM     92  CG  LEU A   4      12.479  -2.830  19.094  0.00  0.00    +0.002 C 
ATOM     93  CD2 LEU A   4      13.672  -3.106  20.005  0.00  0.00    +0.000 C 
ATOM     94  CD1 LEU A   4      11.385  -3.857  19.330  0.00  0.00    +0.000 C 
ENDBRANCH  91  92
ENDBRANCH  56  91
ENDBRANCH  52  56
ENDBRANCH   1  54
BRANCH   1  95
ATOM     95  CB  TYR A   5      12.214   2.274  16.018  0.00  0.00    +0.055 C 
BRANCH  95  96
ATOM     96  CG  TYR A   5      11.772   3.685  16.344  0.00  0.00    -0.020 A 
ATOM     97  CD2 TYR A   5      12.252   4.344  17.468  0.00  0.00    -0.001 A 
ATOM     98  CE2 TYR A   5      11.833   5.628  17.780  0.00  0.00    +0.036 A 
ATOM     99  CZ  TYR A   5      10.927   6.268  16.964  0.00  0.00    +0.134 A 
ATOM    100  CE1 TYR A   5      10.432   5.637  15.845  0.00  0.00    +0.036 A 
ATOM    101  CD1 TYR A   5      10.855   4.348  15.539  0.00  0.00    -0.001 A 
BRANCH  99 102
ATOM    102  OH  TYR A   5      10.504   7.541  17.254  0.00  0.00    -0.506 OA
ATOM    103  HH  TYR A   5       9.859   7.838  16.564  0.00  0.00    +0.292 HD
ENDBRANCH  99 102
ENDBRANCH  95  96
ENDBRANCH   1  95
TORSDOF 41
REMARK  Name = ../refined-set-2016/2w8y/2w8y_pocket.pdb
REMARK  260 active torsions:
REMARK  status: ('A' for Active; 'I' for Inactive)
REMARK    1  A    between atoms: _1  and  _3
REMARK    2  A    between atoms: _3  and  _4
REMARK    3  A    between atoms: _3  and  _6
REMARK    4  A    between atoms: _6  and  _7
REMARK    5  A    between atoms: _10  and  _12
REMARK    6  A    between atoms: _12  and  _13
REMARK    7  A    between atoms: _16  and  _18
REMARK    8  A    between atoms: _18  and  _19
REMARK    9  A    between atoms: _18  and  _21
REMARK   10  A    between atoms: _21  and  _22
REMARK   11  A    between atoms: _24  and  _26
REMARK   12  A    between atoms: _26  and  _27
REMARK   13  A    between atoms: _26  and  _29
REMARK   14  A    between atoms: _29  and  _30
REMARK   15  A    between atoms: _33  and  _35
REMARK   16  A    between atoms: _35  and  _36
REMARK   17  A    between atoms: _35  and  _38
REMARK   18  A    between atoms: _38  and  _39
REMARK   19  A    between atoms: _42  and  _44
REMARK   20  A    between atoms: _44  and  _45
REMARK   21  A    between atoms: _44  and  _47
REMARK   22  A    between atoms: _47  and  _48
REMARK   23  A    between atoms: _51  and  _53
REMARK   24  A    between atoms: _53  and  _54
REMARK   25  A    between atoms: _53  and  _56
REMARK   26  A    between atoms: _56  and  _57
REMARK   27  A    between atoms: _59  and  _61
REMARK   28  A    between atoms: _61  and  _62
REMARK   29  A    between atoms: _61  and  _64
REMARK   30  A    between atoms: _64  and  _65
REMARK   31  A    between atoms: _68  and  _70
REMARK   32  A    between atoms: _70  and  _71
REMARK   33  A    between atoms: _70  and  _73
REMARK   34  A    between atoms: _73  and  _74
REMARK   35  A    between atoms: _79  and  _81
REMARK   36  A    between atoms: _81  and  _82
REMARK   37  A    between atoms: _81  and  _84
REMARK   38  A    between atoms: _84  and  _85
REMARK   39  A    between atoms: _85  and  _86
REMARK   40  A    between atoms: _91  and  _93
REMARK   41  A    between atoms: _93  and  _94
REMARK   42  A    between atoms: _93  and  _96
REMARK   43  A    between atoms: _96  and  _97
REMARK   44  A    between atoms: _100  and  _102
REMARK   45  A    between atoms: _102  and  _103
REMARK   46  A    between atoms: _105  and  _107
REMARK   47  A    between atoms: _107  and  _108
REMARK   48  A    between atoms: _107  and  _110
REMARK   49  A    between atoms: _110  and  _111
REMARK   50  A    between atoms: _111  and  _112
REMARK   51  A    between atoms: _115  and  _117
REMARK   52  A    between atoms: _117  and  _118
REMARK   53  A    between atoms: _117  and  _120
REMARK   54  A    between atoms: _120  and  _121
REMARK   55  A    between atoms: _121  and  _122
REMARK   56  A    between atoms: _122  and  _123
REMARK   57  A    between atoms: _132  and  _134
REMARK   58  A    between atoms: _134  and  _135
REMARK   59  A    between atoms: _134  and  _137
REMARK   60  A    between atoms: _137  and  _138
REMARK   61  A    between atoms: _138  and  _139
REMARK   62  A    between atoms: _144  and  _146
REMARK   63  A    between atoms: _146  and  _147
REMARK   64  A    between atoms: _146  and  _149
REMARK   65  A    between atoms: _149  and  _150
REMARK   66  A    between atoms: _153  and  _155
REMARK   67  A    between atoms: _155  and  _156
REMARK   68  A    between atoms: _155  and  _158
REMARK   69  A    between atoms: _158  and  _159
REMARK   70  A    between atoms: _162  and  _164
REMARK   71  A    between atoms: _164  and  _165
REMARK   72  A    between atoms: _164  and  _167
REMARK   73  A    between atoms: _167  and  _168
REMARK   74  A    between atoms: _178  and  _180
REMARK   75  A    between atoms: _180  and  _181
REMARK   76  A    between atoms: _180  and  _183
REMARK   77  A    between atoms: _183  and  _184
REMARK   78  A    between atoms: _184  and  _185
REMARK   79  A    between atoms: _187  and  _189
REMARK   80  A    between atoms: _189  and  _190
REMARK   81  A    between atoms: _189  and  _192
REMARK   82  A    between atoms: _192  and  _193
REMARK   83  A    between atoms: _195  and  _197
REMARK   84  A    between atoms: _197  and  _198
REMARK   85  A    between atoms: _197  and  _200
REMARK   86  A    between atoms: _200  and  _201
REMARK   87  A    between atoms: _204  and  _206
REMARK   88  A    between atoms: _206  and  _207
REMARK   89  A    between atoms: _206  and  _209
REMARK   90  A    between atoms: _209  and  _210
REMARK   91  A    between atoms: _210  and  _211
REMARK   92  A    between atoms: _213  and  _215
REMARK   93  A    between atoms: _215  and  _216
REMARK   94  A    between atoms: _215  and  _218
REMARK   95  A    between atoms: _221  and  _223
REMARK   96  A    between atoms: _223  and  _224
REMARK   97  A    between atoms: _223  and  _226
REMARK   98  A    between atoms: _226  and  _227
REMARK   99  A    between atoms: _233  and  _235
REMARK  100  A    between atoms: _235  and  _236
REMARK  101  A    between atoms: _238  and  _240
REMARK  102  A    between atoms: _240  and  _241
REMARK  103  A    between atoms: _240  and  _243
REMARK  104  A    between atoms: _243  and  _244
REMARK  105  A    between atoms: _247  and  _249
REMARK  106  A    between atoms: _249  and  _250
REMARK  107  A    between atoms: _252  and  _254
REMARK  108  A    between atoms: _254  and  _255
REMARK  109  A    between atoms: _254  and  _257
REMARK  110  A    between atoms: _257  and  _258
REMARK  111  A    between atoms: _258  and  _259
REMARK  112  A    between atoms: _259  and  _260
REMARK  113  A    between atoms: _269  and  _271
REMARK  114  A    between atoms: _271  and  _272
REMARK  115  A    between atoms: _271  and  _274
REMARK  116  A    between atoms: _274  and  _275
REMARK  117  A    between atoms: _277  and  _279
REMARK  118  A    between atoms: _279  and  _280
REMARK  119  A    between atoms: _279  and  _282
REMARK  120  A    between atoms: _282  and  _283
REMARK  121  A    between atoms: _288  and  _289
REMARK  122  A    between atoms: _291  and  _293
REMARK  123  A    between atoms: _293  and  _294
REMARK  124  A    between atoms: _293  and  _296
REMARK  125  A    between atoms: _296  and  _297
REMARK  126  A    between atoms: _303  and  _305
REMARK  127  A    between atoms: _305  and  _306
REMARK  128  A    between atoms: _309  and  _311
REMARK  129  A    between atoms: _311  and  _312
REMARK  130  A    between atoms: _311  and  _314
REMARK  131  A    between atoms: _314  and  _315
REMARK  132  A    between atoms: _318  and  _320
REMARK  133  A    between atoms: _320  and  _321
REMARK  134  A    between atoms: _320  and  _323
REMARK  135  A    between atoms: _323  and  _324
REMARK  136  A    between atoms: _327  and  _329
REMARK  137  A    between atoms: _329  and  _330
REMARK  138  A    between atoms: _329  and  _332
REMARK  139  A    between atoms: _332  and  _333
REMARK  140  A    between atoms: _335  and  _337
REMARK  141  A    between atoms: _337  and  _338
REMARK  142  A    between atoms: _337  and  _340
REMARK  143  A    between atoms: _340  and  _341
REMARK  144  A    between atoms: _343  and  _345
REMARK  145  A    between atoms: _345  and  _346
REMARK  146  A    between atoms: _345  and  _348
REMARK  147  A    between atoms: _348  and  _349
REMARK  148  A    between atoms: _355  and  _357
REMARK  149  A    between atoms: _357  and  _358
REMARK  150  A    between atoms: _357  and  _360
REMARK  151  A    between atoms: _360  and  _361
REMARK  152  A    between atoms: _366  and  _367
REMARK  153  A    between atoms: _369  and  _371
REMARK  154  A    between atoms: _371  and  _372
REMARK  155  A    between atoms: _371  and  _374
REMARK  156  A    between atoms: _374  and  _375
REMARK  157  A    between atoms: _378  and  _380
REMARK  158  A    between atoms: _380  and  _381
REMARK  159  A    between atoms: _380  and  _383
REMARK  160  A    between atoms: _385  and  _387
REMARK  161  A    between atoms: _387  and  _388
REMARK  162  A    between atoms: _387  and  _390
REMARK  163  A    between atoms: _390  and  _391
REMARK  164  A    between atoms: _391  and  _392
REMARK  165  A    between atoms: _394  and  _396
REMARK  166  A    between atoms: _396  and  _397
REMARK  167  A    between atoms: _396  and  _399
REMARK  168  A    between atoms: _399  and  _400
REMARK  169  A    between atoms: _403  and  _405
REMARK  170  A    between atoms: _405  and  _406
REMARK  171  A    between atoms: _405  and  _408
REMARK  172  A    between atoms: _411  and  _413
REMARK  173  A    between atoms: _413  and  _414
REMARK  174  A    between atoms: _413  and  _416
REMARK  175  A    between atoms: _416  and  _417
REMARK  176  A    between atoms: _417  and  _418
REMARK  177  A    between atoms: _423  and  _425
REMARK  178  A    between atoms: _425  and  _426
REMARK  179  A    between atoms: _425  and  _428
REMARK  180  A    between atoms: _428  and  _429
REMARK  181  A    between atoms: _432  and  _434
REMARK  182  A    between atoms: _434  and  _435
REMARK  183  A    between atoms: _434  and  _437
REMARK  184  A    between atoms: _437  and  _438
REMARK  185  A    between atoms: _443  and  _445
REMARK  186  A    between atoms: _445  and  _446
REMARK  187  A    between atoms: _445  and  _448
REMARK  188  A    between atoms: _448  and  _449
REMARK  189  A    between atoms: _452  and  _454
REMARK  190  A    between atoms: _454  and  _455
REMARK  191  A    between atoms: _454  and  _457
REMARK  192  A    between atoms: _457  and  _458
REMARK  193  A    between atoms: _463  and  _464
REMARK  194  A    between atoms: _466  and  _468
REMARK  195  A    between atoms: _468  and  _469
REMARK  196  A    between atoms: _468  and  _471
REMARK  197  A    between atoms: _473  and  _475
REMARK  198  A    between atoms: _475  and  _476
REMARK  199  A    between atoms: _475  and  _478
REMARK  200  A    between atoms: _478  and  _479
REMARK  201  A    between atoms: _482  and  _484
REMARK  202  A    between atoms: _484  and  _485
REMARK  203  A    between atoms: _484  and  _487
REMARK  204  A    between atoms: _487  and  _488
REMARK  205  A    between atoms: _493  and  _495
REMARK  206  A    between atoms: _495  and  _496
REMARK  207  A    between atoms: _495  and  _498
REMARK  208  A    between atoms: _498  and  _499
REMARK  209  A    between atoms: _502  and  _504
REMARK  210  A    between atoms: _504  and  _505
REMARK  211  A    between atoms: _504  and  _507
REMARK  212  A    between atoms: _507  and  _508
REMARK  213  A    between atoms: _514  and  _516
REMARK  214  A    between atoms: _516  and  _517
REMARK  215  A    between atoms: _516  and  _519
REMARK  216  A    between atoms: _522  and  _524
REMARK  217  A    between atoms: _524  and  _525
REMARK  218  A    between atoms: _524  and  _527
REMARK  219  A    between atoms: _527  and  _528
REMARK  220  A    between atoms: _528  and  _529
REMARK  221  A    between atoms: _532  and  _534
REMARK  222  A    between atoms: _534  and  _535
REMARK  223  A    between atoms: _534  and  _537
REMARK  224  A    between atoms: _537  and  _538
REMARK  225  A    between atoms: _545  and  _546
REMARK  226  A    between atoms: _551  and  _553
REMARK  227  A    between atoms: _553  and  _554
REMARK  228  A    between atoms: _553  and  _556
REMARK  229  A    between atoms: _556  and  _557
REMARK  230  A    between atoms: _557  and  _558
REMARK  231  A    between atoms: _561  and  _563
REMARK  232  A    between atoms: _563  and  _564
REMARK  233  A    between atoms: _563  and  _566
REMARK  234  A    between atoms: _566  and  _567
REMARK  235  A    between atoms: _567  and  _568
REMARK  236  A    between atoms: _570  and  _572
REMARK  237  A    between atoms: _572  and  _573
REMARK  238  A    between atoms: _572  and  _575
REMARK  239  A    between atoms: _575  and  _576
REMARK  240  A    between atoms: _576  and  _577
REMARK  241  A    between atoms: _579  and  _581
REMARK  242  A    between atoms: _581  and  _582
REMARK  243  A    between atoms: _581  and  _584
REMARK  244  A    between atoms: _584  and  _585
REMARK  245  A    between atoms: _587  and  _589
REMARK  246  A    between atoms: _589  and  _590
REMARK  247  A    between atoms: _589  and  _592
REMARK  248  A    between atoms: _592  and  _593
REMARK  249  A    between atoms: _593  and  _594
REMARK  250  A    between atoms: _597  and  _599
REMARK  251  A    between atoms: _599  and  _600
REMARK  252  A    between atoms: _599  and  _602
REMARK  253  A    between atoms: _605  and  _607
REMARK  254  A    between atoms: _607  and  _608
REMARK  255  A    between atoms: _607  and  _610
REMARK  256  A    between atoms: _610  and  _611
REMARK  257  A    between atoms: _614  and  _616
REMARK  258  A    between atoms: _616  and  _617
REMARK  259  A    between atoms: _616  and  _619
REMARK  260  A    between atoms: _619  and  _620
REMARK                            x       y       z     vdW  Elec       q    Type
REMARK                         _______ _______ _______ _____ _____    ______ ____
ROOT
ATOM      1  CA  MET A   6       1.090  -1.086   2.061  0.00  0.00    +0.149 C 
ENDROOT
BRANCH   1   4
ATOM      2  C   GLU A   5      -0.878  -0.407   3.348  0.00  0.00    +0.241 C 
ATOM      3  O   GLU A   5      -0.815  -1.415   4.055  0.00  0.00    -0.273 OA
ATOM      4  N   MET A   6       0.015  -0.139   2.395  0.00  0.00    -0.297 N 
ATOM      5  H   MET A   6      -0.050   0.760   1.876  0.00  0.00    +0.150 HD
BRANCH   2   6
ATOM      6  CA  GLU A   5      -2.031   0.597   3.530  0.00  0.00    +0.149 C 
BRANCH   6   9
ATOM      7  C   PRO A   4      -0.830   2.276   4.901  0.00  0.00    +0.241 C 
ATOM      8  O   PRO A   4      -0.239   1.441   5.586  0.00  0.00    -0.273 OA
ATOM      9  N   GLU A   5      -1.620   1.969   3.872  0.00  0.00    -0.297 N 
ATOM     10  H   GLU A   5      -1.967   2.746   3.274  0.00  0.00    +0.150 HD
BRANCH   7  17
ATOM     11  C   PHE A   3      -0.415   3.815   7.632  0.00  0.00    +0.244 C 
ATOM     12  O   PHE A   3      -1.521   3.310   7.797  0.00  0.00    -0.273 OA
ATOM     13  N   PRO A   4       0.082   4.092   6.407  0.00  0.00    -0.272 N 
ATOM     14  CD  PRO A   4       1.239   4.963   6.121  0.00  0.00    +0.094 C 
ATOM     15  CG  PRO A   4       0.942   5.484   4.754  0.00  0.00    +0.024 C 
ATOM     16  CB  PRO A   4       0.210   4.407   4.080  0.00  0.00    +0.031 C 
ATOM     17  CA  PRO A   4      -0.654   3.771   5.177  0.00  0.00    +0.152 C 
BRANCH  11  18
ATOM     18  CA  PHE A   3       0.438   4.191   8.848  0.00  0.00    +0.153 C 
BRANCH  18  20
ATOM     19  C   GLU A   2       0.117   6.409   9.848  0.00  0.00    +0.241 C 
ATOM     20  N   PHE A   3      -0.297   5.158   9.653  0.00  0.00    -0.297 N 
ATOM     21  H   PHE A   3      -1.188   4.857  10.097  0.00  0.00    +0.150 HD
ATOM     22  O   GLU A   2       1.201   6.842   9.448  0.00  0.00    -0.273 OA
BRANCH  19  23
ATOM     23  CA  GLU A   2      -0.844   7.318  10.599  0.00  0.00    +0.149 C 
BRANCH  23  26
ATOM     24  C   VAL A   1      -0.068   7.751  12.887  0.00  0.00    +0.238 C 
ATOM     25  O   VAL A   1      -0.664   6.771  13.334  0.00  0.00    -0.274 OA
ATOM     26  N   GLU A   2      -0.111   8.104  11.604  0.00  0.00    -0.297 N 
ATOM     27  H   GLU A   2       0.390   8.964  11.302  0.00  0.00    +0.150 HD
BRANCH  24  28
ATOM     28  CA  VAL A   1       0.757   8.637  13.816  0.00  0.00    +0.145 C 
BRANCH  28  29
ATOM     29  CB  VAL A   1       2.074   7.920  14.180  0.00  0.00    +0.025 C 
ATOM     30  CG2 VAL A   1       2.876   8.751  15.170  0.00  0.00    +0.002 C 
ATOM     31  CG1 VAL A   1       2.898   7.639  12.929  0.00  0.00    +0.002 C 
ENDBRANCH  28  29
BRANCH  28  32
ATOM     32  N   VAL A   1      -0.036   8.902  15.007  0.00  0.00    -0.238 NA
ATOM     33  H   VAL A   1      -0.195   8.124  15.679  0.00  0.00    +0.142 HD
ENDBRANCH  28  32
ENDBRANCH  24  28
ENDBRANCH  23  26
BRANCH  23  34
ATOM     34  CB  GLU A   2      -1.549   8.225   9.581  0.00  0.00    +0.041 C 
BRANCH  34  35
ATOM     35  CG  GLU A   2      -2.282   9.426  10.166  0.00  0.00    +0.116 C 
BRANCH  35  36
ATOM     36  CD  GLU A   2      -2.659  10.449   9.100  0.00  0.00    +0.365 C 
ATOM     37  OE2 GLU A   2      -2.719  11.658   9.429  0.00  0.00    -0.246 OA
ATOM     38  OE1 GLU A   2      -2.884  10.039   7.936  0.00  0.00    -0.246 OA
ENDBRANCH  35  36
ENDBRANCH  34  35
ENDBRANCH  23  34
ENDBRANCH  19  23
ENDBRANCH  18  20
BRANCH  18  39
ATOM     39  CB  PHE A   3       0.771   2.945   9.678  0.00  0.00    +0.055 C 
BRANCH  39  40
ATOM     40  CG  PHE A   3       1.967   3.120  10.578  0.00  0.00    -0.020 A 
ATOM     41  CD2 PHE A   3       1.820   3.641  11.852  0.00  0.00    -0.004 A 
ATOM     42  CE2 PHE A   3       2.920   3.813  12.684  0.00  0.00    -0.000 A 
ATOM     43  CZ  PHE A   3       4.183   3.461  12.248  0.00  0.00    -0.000 A 
ATOM     44  CE1 PHE A   3       4.352   2.938  10.972  0.00  0.00    -0.000 A 
ATOM     45  CD1 PHE A   3       3.242   2.769  10.139  0.00  0.00    -0.004 A 
ENDBRANCH  39  40
ENDBRANCH  18  39
ENDBRANCH  11  18
ENDBRANCH   7  17
ENDBRANCH   6   9
BRANCH   6  46
ATOM     46  CB  GLU A   5      -2.890   0.626   2.253  0.00  0.00    +0.041 C 
BRANCH  46  47
ATOM     47  CG  GLU A   5      -3.543  -0.709   1.873  0.00  0.00    +0.116 C 
BRANCH  47  48
ATOM     48  CD  GLU A   5      -4.186  -0.691   0.488  0.00  0.00    +0.365 C 
ATOM     49  OE2 GLU A   5      -4.550   0.402  -0.001  0.00  0.00    -0.246 OA
ATOM     50  OE1 GLU A   5      -4.329  -1.781  -0.108  0.00  0.00    -0.246 OA
ENDBRANCH  47  48
ENDBRANCH  46  47
ENDBRANCH   6  46
ENDBRANCH   2   6
ENDBRANCH   1   4
BRANCH   1  51
ATOM     51  C   MET A   6       2.115  -1.226   3.187  0.00  0.00    +0.241 C 
ATOM     52  N   MET A   7       2.321  -0.145   3.939  0.00  0.00    -0.297 N 
ATOM     53  H   MET A   7       1.863   0.750   3.671  0.00  0.00    +0.150 HD
ATOM     54  O   MET A   6       2.705  -2.301   3.365  0.00  0.00    -0.273 OA
BRANCH  52  55
ATOM     55  CA  MET A   7       3.170  -0.178   5.128  0.00  0.00    +0.149 C 
BRANCH  55  56
ATOM     56  C   MET A   7       2.597  -1.111   6.188  0.00  0.00    +0.241 C 
ATOM     57  O   MET A   7       3.303  -1.985   6.700  0.00  0.00    -0.273 OA
ATOM     58  N   SER A   8       1.313  -0.926   6.490  0.00  0.00    -0.295 N 
ATOM     59  H   SER A   8       0.788  -0.178   5.994  0.00  0.00    +0.150 HD
BRANCH  58  60
ATOM     60  CA  SER A   8       0.612  -1.729   7.487  0.00  0.00    +0.178 C 
BRANCH  60  61
ATOM     61  C   SER A   8       0.638  -3.228   7.192  0.00  0.00    +0.243 C 
ATOM     62  O   SER A   8       0.700  -4.026   8.125  0.00  0.00    -0.273 OA
ATOM     63  N   GLU A   9       0.595  -3.615   5.913  0.00  0.00    -0.297 N 
ATOM     64  H   GLU A   9       0.562  -2.898   5.160  0.00  0.00    +0.150 HD
BRANCH  63  65
ATOM     65  CA  GLU A   9       0.594  -5.038   5.558  0.00  0.00    +0.149 C 
BRANCH  65  66
ATOM     66  C   GLU A   9       1.994  -5.644   5.529  0.00  0.00    +0.241 C 
ATOM     67  O   GLU A   9       2.169  -6.800   5.894  0.00  0.00    -0.273 OA
ATOM     68  N   VAL A  10       2.992  -4.874   5.097  0.00  0.00    -0.297 N 
ATOM     69  H   VAL A  10       2.796  -3.917   4.739  0.00  0.00    +0.150 HD
BRANCH  68  70
ATOM     70  CA  VAL A  10       4.372  -5.382   5.128  0.00  0.00    +0.149 C 
BRANCH  70  71
ATOM     71  C   VAL A  10       4.832  -5.592   6.575  0.00  0.00    +0.241 C 
ATOM     72  N   ILE A  11       4.386  -4.724   7.478  0.00  0.00    -0.298 N 
ATOM     73  H   ILE A  11       3.802  -3.920   7.170  0.00  0.00    +0.150 HD
ATOM     74  O   VAL A  10       5.561  -6.544   6.867  0.00  0.00    -0.273 OA
BRANCH  72  75
ATOM     75  CA  ILE A  11       4.703  -4.880   8.900  0.00  0.00    +0.137 C 
BRANCH  75  76
ATOM     76  C   ILE A  11       3.905  -6.028   9.506  0.00  0.00    +0.227 C 
ATOM     77  O   ILE A  11       4.464  -6.895  10.187  0.00  0.00    -0.286 OA
ENDBRANCH  75  76
BRANCH  75  78
ATOM     78  CB  ILE A  11       4.500  -3.559   9.714  0.00  0.00    +0.026 C 
ATOM     79  CG2 ILE A  11       3.174  -2.900   9.401  0.00  0.00    +0.002 C 
BRANCH  78  80
ATOM     80  CG1 ILE A  11       4.596  -3.816  11.225  0.00  0.00    +0.002 C 
ATOM     81  CD1 ILE A  11       3.370  -4.487  11.835  0.00  0.00    +0.000 C 
ENDBRANCH  78  80
ENDBRANCH  75  78
ENDBRANCH  72  75
ENDBRANCH  70  71
BRANCH  70  82
ATOM     82  CB  VAL A  10       5.394  -4.497   4.352  0.00  0.00    +0.027 C 
ATOM     83  CG2 VAL A  10       5.351  -3.049   4.820  0.00  0.00    +0.002 C 
ATOM     84  CG1 VAL A  10       5.162  -4.611   2.844  0.00  0.00    +0.002 C 
ENDBRANCH  70  82
ENDBRANCH  68  70
ENDBRANCH  65  66
BRANCH  65  85
ATOM     85  CB  GLU A   9      -0.107  -5.289   4.225  0.00  0.00    +0.041 C 
BRANCH  85  86
ATOM     86  CG  GLU A   9      -0.420  -6.765   4.013  0.00  0.00    +0.116 C 
BRANCH  86  87
ATOM     87  CD  GLU A   9      -0.879  -7.443   5.298  0.00  0.00    +0.365 C 
ATOM     88  OE2 GLU A   9      -1.853  -6.960   5.916  0.00  0.00    -0.246 OA
ATOM     89  OE1 GLU A   9      -0.253  -8.447   5.699  0.00  0.00    -0.246 OA
ENDBRANCH  86  87
ENDBRANCH  85  86
ENDBRANCH  65  85
ENDBRANCH  63  65
ENDBRANCH  60  61
BRANCH  60  90
ATOM     90  CB  SER A   8      -0.833  -1.256   7.618  0.00  0.00    +0.166 C 
BRANCH  90  91
ATOM     91  OG  SER A   8      -0.863   0.134   7.896  0.00  0.00    -0.380 OA
ATOM     92  H   SER A   8      -0.423   0.626   7.158  0.00  0.00    +0.211 HD
ENDBRANCH  90  91
ENDBRANCH  60  90
ENDBRANCH  58  60
ENDBRANCH  55  56
BRANCH  55  93
ATOM     93  CB  MET A   7       3.145   1.136   5.932  0.00  0.00    +0.041 C 
BRANCH  93  94
ATOM     94  CG  MET A   7       3.623   1.090   7.397  0.00  0.00    +0.060 C 
BRANCH  94  95
ATOM     95  SD  MET A   7       5.007  -0.012   7.828  0.00  0.00    -0.139 S 
ATOM     96  CE  MET A   7       4.733  -0.263   9.579  0.00  0.00    +0.069 C 
ENDBRANCH  94  95
ENDBRANCH  93  94
ENDBRANCH  55  93
ENDBRANCH  52  55
ENDBRANCH   1  51
BRANCH   1  97
ATOM     97  CB  MET A   6       1.795  -0.706   0.751  0.00  0.00    +0.041 C 
BRANCH  97  98
ATOM     98  CG  MET A   6       0.879  -0.670  -0.472  0.00  0.00    +0.060 C 
BRANCH  98  99
ATOM     99  SD  MET A   6       0.010  -2.230  -0.760  0.00  0.00    -0.139 S 
ATOM    100  CE  MET A   6       1.384  -3.315  -1.176  0.00  0.00    +0.069 C 
ENDBRANCH  98  99
ENDBRANCH  97  98
ENDBRANCH   1  97
TORSDOF 44
REMARK  Name = ../refined-set-2016/2w8y/2w8y_pocket.pdb
REMARK  260 active torsions:
REMARK  status: ('A' for Active; 'I' for Inactive)
REMARK    1  A    between atoms: _1  and  _3
REMARK    2  A    between atoms: _3  and  _4
REMARK    3  A    between atoms: _3  and  _6
REMARK    4  A    between atoms: _6  and  _7
REMARK    5  A    between atoms: _10  and  _12
REMARK    6  A    between atoms: _12  and  _13
REMARK    7  A    between atoms: _16  and  _18
REMARK    8  A    between atoms: _18  and  _19
REMARK    9  A    between atoms: _18  and  _21
REMARK   10  A    between atoms: _21  and  _22
REMARK   11  A    between atoms: _24  and  _26
REMARK   12  A    between atoms: _26  and  _27
REMARK   13  A    between atoms: _26  and  _29
REMARK   14  A    between atoms: _29  and  _30
REMARK   15  A    between atoms: _33  and  _35
REMARK   16  A    between atoms: _35  and  _36
REMARK   17  A    between atoms: _35  and  _38
REMARK   18  A    between atoms: _38  and  _39
REMARK   19  A    between atoms: _42  and  _44
REMARK   20  A    between atoms: _44  and  _45
REMARK   21  A    between atoms: _44  and  _47
REMARK   22  A    between atoms: _47  and  _48
REMARK   23  A    between atoms: _51  and  _53
REMARK   24  A    between atoms: _53  and  _54
REMARK   25  A    between atoms: _53  and  _56
REMARK   26  A    between atoms: _56  and  _57
REMARK   27  A    between atoms: _59  and  _61
REMARK   28  A    between atoms: _61  and  _62
REMARK   29  A    between atoms: _61  and  _64
REMARK   30  A    between atoms: _64  and  _65
REMARK   31  A    between atoms: _68  and  _70
REMARK   32  A    between atoms: _70  and  _71
REMARK   33  A    between atoms: _70  and  _73
REMARK   34  A    between atoms: _73  and  _74
REMARK   35  A    between atoms: _79  and  _81
REMARK   36  A    between atoms: _81  and  _82
REMARK   37  A    between atoms: _81  and  _84
REMARK   38  A    between atoms: _84  and  _85
REMARK   39  A    between atoms: _85  and  _86
REMARK   40  A    between atoms: _91  and  _93
REMARK   41  A    between atoms: _93  and  _94
REMARK   42  A    between atoms: _93  and  _96
REMARK   43  A    between atoms: _96  and  _97
REMARK   44  A    between atoms: _100  and  _102
REMARK   45  A    between atoms: _102  and  _103
REMARK   46  A    between atoms: _105  and  _107
REMARK   47  A    between atoms: _107  and  _108
REMARK   48  A    between atoms: _107  and  _110
REMARK   49  A    between atoms: _110  and  _111
REMARK   50  A    between atoms: _111  and  _112
REMARK   51  A    between atoms: _115  and  _117
REMARK   52  A    between atoms: _117  and  _118
REMARK   53  A    between atoms: _117  and  _120
REMARK   54  A    between atoms: _120  and  _121
REMARK   55  A    between atoms: _121  and  _122
REMARK   56  A    between atoms: _122  and  _123
REMARK   57  A    between atoms: _132  and  _134
REMARK   58  A    between atoms: _134  and  _135
REMARK   59  A    between atoms: _134  and  _137
REMARK   60  A    between atoms: _137  and  _138
REMARK   61  A    between atoms: _138  and  _139
REMARK   62  A    between atoms: _144  and  _146
REMARK   63  A    between atoms: _146  and  _147
REMARK   64  A    between atoms: _146  and  _149
REMARK   65  A    between atoms: _149  and  _150
REMARK   66  A    between atoms: _153  and  _155
REMARK   67  A    between atoms: _155  and  _156
REMARK   68  A    between atoms: _155  and  _158
REMARK   69  A    between atoms: _158  and  _159
REMARK   70  A    between atoms: _162  and  _164
REMARK   71  A    between atoms: _164  and  _165
REMARK   72  A    between atoms: _164  and  _167
REMARK   73  A    between atoms: _167  and  _168
REMARK   74  A    between atoms: _178  and  _180
REMARK   75  A    between atoms: _180  and  _181
REMARK   76  A    between atoms: _180  and  _183
REMARK   77  A    between atoms: _183  and  _184
REMARK   78  A    between atoms: _184  and  _185
REMARK   79  A    between atoms: _187  and  _189
REMARK   80  A    between atoms: _189  and  _190
REMARK   81  A    between atoms: _189  and  _192
REMARK   82  A    between atoms: _192  and  _193
REMARK   83  A    between atoms: _195  and  _197
REMARK   84  A    between atoms: _197  and  _198
REMARK   85  A    between atoms: _197  and  _200
REMARK   86  A    between atoms: _200  and  _201
REMARK   87  A    between atoms: _204  and  _206
REMARK   88  A    between atoms: _206  and  _207
REMARK   89  A    between atoms: _206  and  _209
REMARK   90  A    between atoms: _209  and  _210
REMARK   91  A    between atoms: _210  and  _211
REMARK   92  A    between atoms: _213  and  _215
REMARK   93  A    between atoms: _215  and  _216
REMARK   94  A    between atoms: _215  and  _218
REMARK   95  A    between atoms: _221  and  _223
REMARK   96  A    between atoms: _223  and  _224
REMARK   97  A    between atoms: _223  and  _226
REMARK   98  A    between atoms: _226  and  _227
REMARK   99  A    between atoms: _233  and  _235
REMARK  100  A    between atoms: _235  and  _236
REMARK  101  A    between atoms: _238  and  _240
REMARK  102  A    between atoms: _240  and  _241
REMARK  103  A    between atoms: _240  and  _243
REMARK  104  A    between atoms: _243  and  _244
REMARK  105  A    between atoms: _247  and  _249
REMARK  106  A    between atoms: _249  and  _250
REMARK  107  A    between atoms: _252  and  _254
REMARK  108  A    between atoms: _254  and  _255
REMARK  109  A    between atoms: _254  and  _257
REMARK  110  A    between atoms: _257  and  _258
REMARK  111  A    between atoms: _258  and  _259
REMARK  112  A    between atoms: _259  and  _260
REMARK  113  A    between atoms: _269  and  _271
REMARK  114  A    between atoms: _271  and  _272
REMARK  115  A    between atoms: _271  and  _274
REMARK  116  A    between atoms: _274  and  _275
REMARK  117  A    between atoms: _277  and  _279
REMARK  118  A    between atoms: _279  and  _280
REMARK  119  A    between atoms: _279  and  _282
REMARK  120  A    between atoms: _282  and  _283
REMARK  121  A    between atoms: _288  and  _289
REMARK  122  A    between atoms: _291  and  _293
REMARK  123  A    between atoms: _293  and  _294
REMARK  124  A    between atoms: _293  and  _296
REMARK  125  A    between atoms: _296  and  _297
REMARK  126  A    between atoms: _303  and  _305
REMARK  127  A    between atoms: _305  and  _306
REMARK  128  A    between atoms: _309  and  _311
REMARK  129  A    between atoms: _311  and  _312
REMARK  130  A    between atoms: _311  and  _314
REMARK  131  A    between atoms: _314  and  _315
REMARK  132  A    between atoms: _318  and  _320
REMARK  133  A    between atoms: _320  and  _321
REMARK  134  A    between atoms: _320  and  _323
REMARK  135  A    between atoms: _323  and  _324
REMARK  136  A    between atoms: _327  and  _329
REMARK  137  A    between atoms: _329  and  _330
REMARK  138  A    between atoms: _329  and  _332
REMARK  139  A    between atoms: _332  and  _333
REMARK  140  A    between atoms: _335  and  _337
REMARK  141  A    between atoms: _337  and  _338
REMARK  142  A    between atoms: _337  and  _340
REMARK  143  A    between atoms: _340  and  _341
REMARK  144  A    between atoms: _343  and  _345
REMARK  145  A    between atoms: _345  and  _346
REMARK  146  A    between atoms: _345  and  _348
REMARK  147  A    between atoms: _348  and  _349
REMARK  148  A    between atoms: _355  and  _357
REMARK  149  A    between atoms: _357  and  _358
REMARK  150  A    between atoms: _357  and  _360
REMARK  151  A    between atoms: _360  and  _361
REMARK  152  A    between atoms: _366  and  _367
REMARK  153  A    between atoms: _369  and  _371
REMARK  154  A    between atoms: _371  and  _372
REMARK  155  A    between atoms: _371  and  _374
REMARK  156  A    between atoms: _374  and  _375
REMARK  157  A    between atoms: _378  and  _380
REMARK  158  A    between atoms: _380  and  _381
REMARK  159  A    between atoms: _380  and  _383
REMARK  160  A    between atoms: _385  and  _387
REMARK  161  A    between atoms: _387  and  _388
REMARK  162  A    between atoms: _387  and  _390
REMARK  163  A    between atoms: _390  and  _391
REMARK  164  A    between atoms: _391  and  _392
REMARK  165  A    between atoms: _394  and  _396
REMARK  166  A    between atoms: _396  and  _397
REMARK  167  A    between atoms: _396  and  _399
REMARK  168  A    between atoms: _399  and  _400
REMARK  169  A    between atoms: _403  and  _405
REMARK  170  A    between atoms: _405  and  _406
REMARK  171  A    between atoms: _405  and  _408
REMARK  172  A    between atoms: _411  and  _413
REMARK  173  A    between atoms: _413  and  _414
REMARK  174  A    between atoms: _413  and  _416
REMARK  175  A    between atoms: _416  and  _417
REMARK  176  A    between atoms: _417  and  _418
REMARK  177  A    between atoms: _423  and  _425
REMARK  178  A    between atoms: _425  and  _426
REMARK  179  A    between atoms: _425  and  _428
REMARK  180  A    between atoms: _428  and  _429
REMARK  181  A    between atoms: _432  and  _434
REMARK  182  A    between atoms: _434  and  _435
REMARK  183  A    between atoms: _434  and  _437
REMARK  184  A    between atoms: _437  and  _438
REMARK  185  A    between atoms: _443  and  _445
REMARK  186  A    between atoms: _445  and  _446
REMARK  187  A    between atoms: _445  and  _448
REMARK  188  A    between atoms: _448  and  _449
REMARK  189  A    between atoms: _452  and  _454
REMARK  190  A    between atoms: _454  and  _455
REMARK  191  A    between atoms: _454  and  _457
REMARK  192  A    between atoms: _457  and  _458
REMARK  193  A    between atoms: _463  and  _464
REMARK  194  A    between atoms: _466  and  _468
REMARK  195  A    between atoms: _468  and  _469
REMARK  196  A    between atoms: _468  and  _471
REMARK  197  A    between atoms: _473  and  _475
REMARK  198  A    between atoms: _475  and  _476
REMARK  199  A    between atoms: _475  and  _478
REMARK  200  A    between atoms: _478  and  _479
REMARK  201  A    between atoms: _482  and  _484
REMARK  202  A    between atoms: _484  and  _485
REMARK  203  A    between atoms: _484  and  _487
REMARK  204  A    between atoms: _487  and  _488
REMARK  205  A    between atoms: _493  and  _495
REMARK  206  A    between atoms: _495  and  _496
REMARK  207  A    between atoms: _495  and  _498
REMARK  208  A    between atoms: _498  and  _499
REMARK  209  A    between atoms: _502  and  _504
REMARK  210  A    between atoms: _504  and  _505
REMARK  211  A    between atoms: _504  and  _507
REMARK  212  A    between atoms: _507  and  _508
REMARK  213  A    between atoms: _514  and  _516
REMARK  214  A    between atoms: _516  and  _517
REMARK  215  A    between atoms: _516  and  _519
REMARK  216  A    between atoms: _522  and  _524
REMARK  217  A    between atoms: _524  and  _525
REMARK  218  A    between atoms: _524  and  _527
REMARK  219  A    between atoms: _527  and  _528
REMARK  220  A    between atoms: _528  and  _529
REMARK  221  A    between atoms: _532  and  _534
REMARK  222  A    between atoms: _534  and  _535
REMARK  223  A    between atoms: _534  and  _537
REMARK  224  A    between atoms: _537  and  _538
REMARK  225  A    between atoms: _545  and  _546
REMARK  226  A    between atoms: _551  and  _553
REMARK  227  A    between atoms: _553  and  _554
REMARK  228  A    between atoms: _553  and  _556
REMARK  229  A    between atoms: _556  and  _557
REMARK  230  A    between atoms: _557  and  _558
REMARK  231  A    between atoms: _561  and  _563
REMARK  232  A    between atoms: _563  and  _564
REMARK  233  A    between atoms: _563  and  _566
REMARK  234  A    between atoms: _566  and  _567
REMARK  235  A    between atoms: _567  and  _568
REMARK  236  A    between atoms: _570  and  _572
REMARK  237  A    between atoms: _572  and  _573
REMARK  238  A    between atoms: _572  and  _575
REMARK  239  A    between atoms: _575  and  _576
REMARK  240  A    between atoms: _576  and  _577
REMARK  241  A    between atoms: _579  and  _581
REMARK  242  A    between atoms: _581  and  _582
REMARK  243  A    between atoms: _581  and  _584
REMARK  244  A    between atoms: _584  and  _585
REMARK  245  A    between atoms: _587  and  _589
REMARK  246  A    between atoms: _589  and  _590
REMARK  247  A    between atoms: _589  and  _592
REMARK  248  A    between atoms: _592  and  _593
REMARK  249  A    between atoms: _593  and  _594
REMARK  250  A    between atoms: _597  and  _599
REMARK  251  A    between atoms: _599  and  _600
REMARK  252  A    between atoms: _599  and  _602
REMARK  253  A    between atoms: _605  and  _607
REMARK  254  A    between atoms: _607  and  _608
REMARK  255  A    between atoms: _607  and  _610
REMARK  256  A    between atoms: _610  and  _611
REMARK  257  A    between atoms: _614  and  _616
REMARK  258  A    between atoms: _616  and  _617
REMARK  259  A    between atoms: _616  and  _619
REMARK  260  A    between atoms: _619  and  _620
REMARK                            x       y       z     vdW  Elec       q    Type
REMARK                         _______ _______ _______ _____ _____    ______ ____
ROOT
ATOM      1  CA  LEU A   1       8.009  -7.754  11.268  0.00  0.00    +0.133 C 
ENDROOT
BRANCH   1   2
ATOM      2  N   LEU A   1       7.093  -8.408  10.305  0.00  0.00    -0.239 NA
ATOM      3  H   LEU A   1       6.210  -7.941  10.015  0.00  0.00    +0.142 HD
ENDBRANCH   1   2
BRANCH   1   4
ATOM      4  C   LEU A   1       8.266  -8.561  12.548  0.00  0.00    +0.224 C 
ATOM      5  O   LEU A   1       9.419  -8.673  12.980  0.00  0.00    -0.287 OA
ENDBRANCH   1   4
BRANCH   1   6
ATOM      6  CB  LEU A   1       7.568  -6.323  11.633  0.00  0.00    +0.025 C 
BRANCH   6   7
ATOM      7  CG  LEU A   1       8.031  -5.203  10.708  0.00  0.00    +0.002 C 
ATOM      8  CD2 LEU A   1       7.936  -3.867  11.435  0.00  0.00    +0.000 C 
ATOM      9  CD1 LEU A   1       9.453  -5.436  10.194  0.00  0.00    +0.000 C 
ENDBRANCH   6   7
ENDBRANCH   1   6
TORSDOF 4
REMARK  Name = ../refined-set-2016/2w8y/2w8y_pocket.pdb
REMARK  260 active torsions:
REMARK  status: ('A' for Active; 'I' for Inactive)
REMARK    1  A    between atoms: _1  and  _3
REMARK    2  A    between atoms: _3  and  _4
REMARK    3  A    between atoms: _3  and  _6
REMARK    4  A    between atoms: _6  and  _7
REMARK    5  A    between atoms: _10  and  _12
REMARK    6  A    between atoms: _12  and  _13
REMARK    7  A    between atoms: _16  and  _18
REMARK    8  A    between atoms: _18  and  _19
REMARK    9  A    between atoms: _18  and  _21
REMARK   10  A    between atoms: _21  and  _22
REMARK   11  A    between atoms: _24  and  _26
REMARK   12  A    between atoms: _26  and  _27
REMARK   13  A    between atoms: _26  and  _29
REMARK   14  A    between atoms: _29  and  _30
REMARK   15  A    between atoms: _33  and  _35
REMARK   16  A    between atoms: _35  and  _36
REMARK   17  A    between atoms: _35  and  _38
REMARK   18  A    between atoms: _38  and  _39
REMARK   19  A    between atoms: _42  and  _44
REMARK   20  A    between atoms: _44  and  _45
REMARK   21  A    between atoms: _44  and  _47
REMARK   22  A    between atoms: _47  and  _48
REMARK   23  A    between atoms: _51  and  _53
REMARK   24  A    between atoms: _53  and  _54
REMARK   25  A    between atoms: _53  and  _56
REMARK   26  A    between atoms: _56  and  _57
REMARK   27  A    between atoms: _59  and  _61
REMARK   28  A    between atoms: _61  and  _62
REMARK   29  A    between atoms: _61  and  _64
REMARK   30  A    between atoms: _64  and  _65
REMARK   31  A    between atoms: _68  and  _70
REMARK   32  A    between atoms: _70  and  _71
REMARK   33  A    between atoms: _70  and  _73
REMARK   34  A    between atoms: _73  and  _74
REMARK   35  A    between atoms: _79  and  _81
REMARK   36  A    between atoms: _81  and  _82
REMARK   37  A    between atoms: _81  and  _84
REMARK   38  A    between atoms: _84  and  _85
REMARK   39  A    between atoms: _85  and  _86
REMARK   40  A    between atoms: _91  and  _93
REMARK   41  A    between atoms: _93  and  _94
REMARK   42  A    between atoms: _93  and  _96
REMARK   43  A    between atoms: _96  and  _97
REMARK   44  A    between atoms: _100  and  _102
REMARK   45  A    between atoms: _102  and  _103
REMARK   46  A    between atoms: _105  and  _107
REMARK   47  A    between atoms: _107  and  _108
REMARK   48  A    between atoms: _107  and  _110
REMARK   49  A    between atoms: _110  and  _111
REMARK   50  A    between atoms: _111  and  _112
REMARK   51  A    between atoms: _115  and  _117
REMARK   52  A    between atoms: _117  and  _118
REMARK   53  A    between atoms: _117  and  _120
REMARK   54  A    between atoms: _120  and  _121
REMARK   55  A    between atoms: _121  and  _122
REMARK   56  A    between atoms: _122  and  _123
REMARK   57  A    between atoms: _132  and  _134
REMARK   58  A    between atoms: _134  and  _135
REMARK   59  A    between atoms: _134  and  _137
REMARK   60  A    between atoms: _137  and  _138
REMARK   61  A    between atoms: _138  and  _139
REMARK   62  A    between atoms: _144  and  _146
REMARK   63  A    between atoms: _146  and  _147
REMARK   64  A    between atoms: _146  and  _149
REMARK   65  A    between atoms: _149  and  _150
REMARK   66  A    between atoms: _153  and  _155
REMARK   67  A    between atoms: _155  and  _156
REMARK   68  A    between atoms: _155  and  _158
REMARK   69  A    between atoms: _158  and  _159
REMARK   70  A    between atoms: _162  and  _164
REMARK   71  A    between atoms: _164  and  _165
REMARK   72  A    between atoms: _164  and  _167
REMARK   73  A    between atoms: _167  and  _168
REMARK   74  A    between atoms: _178  and  _180
REMARK   75  A    between atoms: _180  and  _181
REMARK   76  A    between atoms: _180  and  _183
REMARK   77  A    between atoms: _183  and  _184
REMARK   78  A    between atoms: _184  and  _185
REMARK   79  A    between atoms: _187  and  _189
REMARK   80  A    between atoms: _189  and  _190
REMARK   81  A    between atoms: _189  and  _192
REMARK   82  A    between atoms: _192  and  _193
REMARK   83  A    between atoms: _195  and  _197
REMARK   84  A    between atoms: _197  and  _198
REMARK   85  A    between atoms: _197  and  _200
REMARK   86  A    between atoms: _200  and  _201
REMARK   87  A    between atoms: _204  and  _206
REMARK   88  A    between atoms: _206  and  _207
REMARK   89  A    between atoms: _206  and  _209
REMARK   90  A    between atoms: _209  and  _210
REMARK   91  A    between atoms: _210  and  _211
REMARK   92  A    between atoms: _213  and  _215
REMARK   93  A    between atoms: _215  and  _216
REMARK   94  A    between atoms: _215  and  _218
REMARK   95  A    between atoms: _221  and  _223
REMARK   96  A    between atoms: _223  and  _224
REMARK   97  A    between atoms: _223  and  _226
REMARK   98  A    between atoms: _226  and  _227
REMARK   99  A    between atoms: _233  and  _235
REMARK  100  A    between atoms: _235  and  _236
REMARK  101  A    between atoms: _238  and  _240
REMARK  102  A    between atoms: _240  and  _241
REMARK  103  A    between atoms: _240  and  _243
REMARK  104  A    between atoms: _243  and  _244
REMARK  105  A    between atoms: _247  and  _249
REMARK  106  A    between atoms: _249  and  _250
REMARK  107  A    between atoms: _252  and  _254
REMARK  108  A    between atoms: _254  and  _255
REMARK  109  A    between atoms: _254  and  _257
REMARK  110  A    between atoms: _257  and  _258
REMARK  111  A    between atoms: _258  and  _259
REMARK  112  A    between atoms: _259  and  _260
REMARK  113  A    between atoms: _269  and  _271
REMARK  114  A    between atoms: _271  and  _272
REMARK  115  A    between atoms: _271  and  _274
REMARK  116  A    between atoms: _274  and  _275
REMARK  117  A    between atoms: _277  and  _279
REMARK  118  A    between atoms: _279  and  _280
REMARK  119  A    between atoms: _279  and  _282
REMARK  120  A    between atoms: _282  and  _283
REMARK  121  A    between atoms: _288  and  _289
REMARK  122  A    between atoms: _291  and  _293
REMARK  123  A    between atoms: _293  and  _294
REMARK  124  A    between atoms: _293  and  _296
REMARK  125  A    between atoms: _296  and  _297
REMARK  126  A    between atoms: _303  and  _305
REMARK  127  A    between atoms: _305  and  _306
REMARK  128  A    between atoms: _309  and  _311
REMARK  129  A    between atoms: _311  and  _312
REMARK  130  A    between atoms: _311  and  _314
REMARK  131  A    between atoms: _314  and  _315
REMARK  132  A    between atoms: _318  and  _320
REMARK  133  A    between atoms: _320  and  _321
REMARK  134  A    between atoms: _320  and  _323
REMARK  135  A    between atoms: _323  and  _324
REMARK  136  A    between atoms: _327  and  _329
REMARK  137  A    between atoms: _329  and  _330
REMARK  138  A    between atoms: _329  and  _332
REMARK  139  A    between atoms: _332  and  _333
REMARK  140  A    between atoms: _335  and  _337
REMARK  141  A    between atoms: _337  and  _338
REMARK  142  A    between atoms: _337  and  _340
REMARK  143  A    between atoms: _340  and  _341
REMARK  144  A    between atoms: _343  and  _345
REMARK  145  A    between atoms: _345  and  _346
REMARK  146  A    between atoms: _345  and  _348
REMARK  147  A    between atoms: _348  and  _349
REMARK  148  A    between atoms: _355  and  _357
REMARK  149  A    between atoms: _357  and  _358
REMARK  150  A    between atoms: _357  and  _360
REMARK  151  A    between atoms: _360  and  _361
REMARK  152  A    between atoms: _366  and  _367
REMARK  153  A    between atoms: _369  and  _371
REMARK  154  A    between atoms: _371  and  _372
REMARK  155  A    between atoms: _371  and  _374
REMARK  156  A    between atoms: _374  and  _375
REMARK  157  A    between atoms: _378  and  _380
REMARK  158  A    between atoms: _380  and  _381
REMARK  159  A    between atoms: _380  and  _383
REMARK  160  A    between atoms: _385  and  _387
REMARK  161  A    between atoms: _387  and  _388
REMARK  162  A    between atoms: _387  and  _390
REMARK  163  A    between atoms: _390  and  _391
REMARK  164  A    between atoms: _391  and  _392
REMARK  165  A    between atoms: _394  and  _396
REMARK  166  A    between atoms: _396  and  _397
REMARK  167  A    between atoms: _396  and  _399
REMARK  168  A    between atoms: _399  and  _400
REMARK  169  A    between atoms: _403  and  _405
REMARK  170  A    between atoms: _405  and  _406
REMARK  171  A    between atoms: _405  and  _408
REMARK  172  A    between atoms: _411  and  _413
REMARK  173  A    between atoms: _413  and  _414
REMARK  174  A    between atoms: _413  and  _416
REMARK  175  A    between atoms: _416  and  _417
REMARK  176  A    between atoms: _417  and  _418
REMARK  177  A    between atoms: _423  and  _425
REMARK  178  A    between atoms: _425  and  _426
REMARK  179  A    between atoms: _425  and  _428
REMARK  180  A    between atoms: _428  and  _429
REMARK  181  A    between atoms: _432  and  _434
REMARK  182  A    between atoms: _434  and  _435
REMARK  183  A    between atoms: _434  and  _437
REMARK  184  A    between atoms: _437  and  _438
REMARK  185  A    between atoms: _443  and  _445
REMARK  186  A    between atoms: _445  and  _446
REMARK  187  A    between atoms: _445  and  _448
REMARK  188  A    between atoms: _448  and  _449
REMARK  189  A    between atoms: _452  and  _454
REMARK  190  A    between atoms: _454  and  _455
REMARK  191  A    between atoms: _454  and  _457
REMARK  192  A    between atoms: _457  and  _458
REMARK  193  A    between atoms: _463  and  _464
REMARK  194  A    between atoms: _466  and  _468
REMARK  195  A    between atoms: _468  and  _469
REMARK  196  A    between atoms: _468  and  _471
REMARK  197  A    between atoms: _473  and  _475
REMARK  198  A    between atoms: _475  and  _476
REMARK  199  A    between atoms: _475  and  _478
REMARK  200  A    between atoms: _478  and  _479
REMARK  201  A    between atoms: _482  and  _484
REMARK  202  A    between atoms: _484  and  _485
REMARK  203  A    between atoms: _484  and  _487
REMARK  204  A    between atoms: _487  and  _488
REMARK  205  A    between atoms: _493  and  _495
REMARK  206  A    between atoms: _495  and  _496
REMARK  207  A    between atoms: _495  and  _498
REMARK  208  A    between atoms: _498  and  _499
REMARK  209  A    between atoms: _502  and  _504
REMARK  210  A    between atoms: _504  and  _505
REMARK  211  A    between atoms: _504  and  _507
REMARK  212  A    between atoms: _507  and  _508
REMARK  213  A    between atoms: _514  and  _516
REMARK  214  A    between atoms: _516  and  _517
REMARK  215  A    between atoms: _516  and  _519
REMARK  216  A    between atoms: _522  and  _524
REMARK  217  A    between atoms: _524  and  _525
REMARK  218  A    between atoms: _524  and  _527
REMARK  219  A    between atoms: _527  and  _528
REMARK  220  A    between atoms: _528  and  _529
REMARK  221  A    between atoms: _532  and  _534
REMARK  222  A    between atoms: _534  and  _535
REMARK  223  A    between atoms: _534  and  _537
REMARK  224  A    between atoms: _537  and  _538
REMARK  225  A    between atoms: _545  and  _546
REMARK  226  A    between atoms: _551  and  _553
REMARK  227  A    between atoms: _553  and  _554
REMARK  228  A    between atoms: _553  and  _556
REMARK  229  A    between atoms: _556  and  _557
REMARK  230  A    between atoms: _557  and  _558
REMARK  231  A    between atoms: _561  and  _563
REMARK  232  A    between atoms: _563  and  _564
REMARK  233  A    between atoms: _563  and  _566
REMARK  234  A    between atoms: _566  and  _567
REMARK  235  A    between atoms: _567  and  _568
REMARK  236  A    between atoms: _570  and  _572
REMARK  237  A    between atoms: _572  and  _573
REMARK  238  A    between atoms: _572  and  _575
REMARK  239  A    between atoms: _575  and  _576
REMARK  240  A    between atoms: _576  and  _577
REMARK  241  A    between atoms: _579  and  _581
REMARK  242  A    between atoms: _581  and  _582
REMARK  243  A    between atoms: _581  and  _584
REMARK  244  A    between atoms: _584  and  _585
REMARK  245  A    between atoms: _587  and  _589
REMARK  246  A    between atoms: _589  and  _590
REMARK  247  A    between atoms: _589  and  _592
REMARK  248  A    between atoms: _592  and  _593
REMARK  249  A    between atoms: _593  and  _594
REMARK  250  A    between atoms: _597  and  _599
REMARK  251  A    between atoms: _599  and  _600
REMARK  252  A    between atoms: _599  and  _602
REMARK  253  A    between atoms: _605  and  _607
REMARK  254  A    between atoms: _607  and  _608
REMARK  255  A    between atoms: _607  and  _610
REMARK  256  A    between atoms: _610  and  _611
REMARK  257  A    between atoms: _614  and  _616
REMARK  258  A    between atoms: _616  and  _617
REMARK  259  A    between atoms: _616  and  _619
REMARK  260  A    between atoms: _619  and  _620
REMARK                            x       y       z     vdW  Elec       q    Type
REMARK                         _______ _______ _______ _____ _____    ______ ____
ROOT
ATOM      1  O   HOH     1      14.072  11.018  -3.856  0.00  0.00    +0.000 OA
ENDROOT
TORSDOF 0
REMARK  Name = ../refined-set-2016/2w8y/2w8y_pocket.pdb
REMARK  260 active torsions:
REMARK  status: ('A' for Active; 'I' for Inactive)
REMARK    1  A    between atoms: _1  and  _3
REMARK    2  A    between atoms: _3  and  _4
REMARK    3  A    between atoms: _3  and  _6
REMARK    4  A    between atoms: _6  and  _7
REMARK    5  A    between atoms: _10  and  _12
REMARK    6  A    between atoms: _12  and  _13
REMARK    7  A    between atoms: _16  and  _18
REMARK    8  A    between atoms: _18  and  _19
REMARK    9  A    between atoms: _18  and  _21
REMARK   10  A    between atoms: _21  and  _22
REMARK   11  A    between atoms: _24  and  _26
REMARK   12  A    between atoms: _26  and  _27
REMARK   13  A    between atoms: _26  and  _29
REMARK   14  A    between atoms: _29  and  _30
REMARK   15  A    between atoms: _33  and  _35
REMARK   16  A    between atoms: _35  and  _36
REMARK   17  A    between atoms: _35  and  _38
REMARK   18  A    between atoms: _38  and  _39
REMARK   19  A    between atoms: _42  and  _44
REMARK   20  A    between atoms: _44  and  _45
REMARK   21  A    between atoms: _44  and  _47
REMARK   22  A    between atoms: _47  and  _48
REMARK   23  A    between atoms: _51  and  _53
REMARK   24  A    between atoms: _53  and  _54
REMARK   25  A    between atoms: _53  and  _56
REMARK   26  A    between atoms: _56  and  _57
REMARK   27  A    between atoms: _59  and  _61
REMARK   28  A    between atoms: _61  and  _62
REMARK   29  A    between atoms: _61  and  _64
REMARK   30  A    between atoms: _64  and  _65
REMARK   31  A    between atoms: _68  and  _70
REMARK   32  A    between atoms: _70  and  _71
REMARK   33  A    between atoms: _70  and  _73
REMARK   34  A    between atoms: _73  and  _74
REMARK   35  A    between atoms: _79  and  _81
REMARK   36  A    between atoms: _81  and  _82
REMARK   37  A    between atoms: _81  and  _84
REMARK   38  A    between atoms: _84  and  _85
REMARK   39  A    between atoms: _85  and  _86
REMARK   40  A    between atoms: _91  and  _93
REMARK   41  A    between atoms: _93  and  _94
REMARK   42  A    between atoms: _93  and  _96
REMARK   43  A    between atoms: _96  and  _97
REMARK   44  A    between atoms: _100  and  _102
REMARK   45  A    between atoms: _102  and  _103
REMARK   46  A    between atoms: _105  and  _107
REMARK   47  A    between atoms: _107  and  _108
REMARK   48  A    between atoms: _107  and  _110
REMARK   49  A    between atoms: _110  and  _111
REMARK   50  A    between atoms: _111  and  _112
REMARK   51  A    between atoms: _115  and  _117
REMARK   52  A    between atoms: _117  and  _118
REMARK   53  A    between atoms: _117  and  _120
REMARK   54  A    between atoms: _120  and  _121
REMARK   55  A    between atoms: _121  and  _122
REMARK   56  A    between atoms: _122  and  _123
REMARK   57  A    between atoms: _132  and  _134
REMARK   58  A    between atoms: _134  and  _135
REMARK   59  A    between atoms: _134  and  _137
REMARK   60  A    between atoms: _137  and  _138
REMARK   61  A    between atoms: _138  and  _139
REMARK   62  A    between atoms: _144  and  _146
REMARK   63  A    between atoms: _146  and  _147
REMARK   64  A    between atoms: _146  and  _149
REMARK   65  A    between atoms: _149  and  _150
REMARK   66  A    between atoms: _153  and  _155
REMARK   67  A    between atoms: _155  and  _156
REMARK   68  A    between atoms: _155  and  _158
REMARK   69  A    between atoms: _158  and  _159
REMARK   70  A    between atoms: _162  and  _164
REMARK   71  A    between atoms: _164  and  _165
REMARK   72  A    between atoms: _164  and  _167
REMARK   73  A    between atoms: _167  and  _168
REMARK   74  A    between atoms: _178  and  _180
REMARK   75  A    between atoms: _180  and  _181
REMARK   76  A    between atoms: _180  and  _183
REMARK   77  A    between atoms: _183  and  _184
REMARK   78  A    between atoms: _184  and  _185
REMARK   79  A    between atoms: _187  and  _189
REMARK   80  A    between atoms: _189  and  _190
REMARK   81  A    between atoms: _189  and  _192
REMARK   82  A    between atoms: _192  and  _193
REMARK   83  A    between atoms: _195  and  _197
REMARK   84  A    between atoms: _197  and  _198
REMARK   85  A    between atoms: _197  and  _200
REMARK   86  A    between atoms: _200  and  _201
REMARK   87  A    between atoms: _204  and  _206
REMARK   88  A    between atoms: _206  and  _207
REMARK   89  A    between atoms: _206  and  _209
REMARK   90  A    between atoms: _209  and  _210
REMARK   91  A    between atoms: _210  and  _211
REMARK   92  A    between atoms: _213  and  _215
REMARK   93  A    between atoms: _215  and  _216
REMARK   94  A    between atoms: _215  and  _218
REMARK   95  A    between atoms: _221  and  _223
REMARK   96  A    between atoms: _223  and  _224
REMARK   97  A    between atoms: _223  and  _226
REMARK   98  A    between atoms: _226  and  _227
REMARK   99  A    between atoms: _233  and  _235
REMARK  100  A    between atoms: _235  and  _236
REMARK  101  A    between atoms: _238  and  _240
REMARK  102  A    between atoms: _240  and  _241
REMARK  103  A    between atoms: _240  and  _243
REMARK  104  A    between atoms: _243  and  _244
REMARK  105  A    between atoms: _247  and  _249
REMARK  106  A    between atoms: _249  and  _250
REMARK  107  A    between atoms: _252  and  _254
REMARK  108  A    between atoms: _254  and  _255
REMARK  109  A    between atoms: _254  and  _257
REMARK  110  A    between atoms: _257  and  _258
REMARK  111  A    between atoms: _258  and  _259
REMARK  112  A    between atoms: _259  and  _260
REMARK  113  A    between atoms: _269  and  _271
REMARK  114  A    between atoms: _271  and  _272
REMARK  115  A    between atoms: _271  and  _274
REMARK  116  A    between atoms: _274  and  _275
REMARK  117  A    between atoms: _277  and  _279
REMARK  118  A    between atoms: _279  and  _280
REMARK  119  A    between atoms: _279  and  _282
REMARK  120  A    between atoms: _282  and  _283
REMARK  121  A    between atoms: _288  and  _289
REMARK  122  A    between atoms: _291  and  _293
REMARK  123  A    between atoms: _293  and  _294
REMARK  124  A    between atoms: _293  and  _296
REMARK  125  A    between atoms: _296  and  _297
REMARK  126  A    between atoms: _303  and  _305
REMARK  127  A    between atoms: _305  and  _306
REMARK  128  A    between atoms: _309  and  _311
REMARK  129  A    between atoms: _311  and  _312
REMARK  130  A    between atoms: _311  and  _314
REMARK  131  A    between atoms: _314  and  _315
REMARK  132  A    between atoms: _318  and  _320
REMARK  133  A    between atoms: _320  and  _321
REMARK  134  A    between atoms: _320  and  _323
REMARK  135  A    between atoms: _323  and  _324
REMARK  136  A    between atoms: _327  and  _329
REMARK  137  A    between atoms: _329  and  _330
REMARK  138  A    between atoms: _329  and  _332
REMARK  139  A    between atoms: _332  and  _333
REMARK  140  A    between atoms: _335  and  _337
REMARK  141  A    between atoms: _337  and  _338
REMARK  142  A    between atoms: _337  and  _340
REMARK  143  A    between atoms: _340  and  _341
REMARK  144  A    between atoms: _343  and  _345
REMARK  145  A    between atoms: _345  and  _346
REMARK  146  A    between atoms: _345  and  _348
REMARK  147  A    between atoms: _348  and  _349
REMARK  148  A    between atoms: _355  and  _357
REMARK  149  A    between atoms: _357  and  _358
REMARK  150  A    between atoms: _357  and  _360
REMARK  151  A    between atoms: _360  and  _361
REMARK  152  A    between atoms: _366  and  _367
REMARK  153  A    between atoms: _369  and  _371
REMARK  154  A    between atoms: _371  and  _372
REMARK  155  A    between atoms: _371  and  _374
REMARK  156  A    between atoms: _374  and  _375
REMARK  157  A    between atoms: _378  and  _380
REMARK  158  A    between atoms: _380  and  _381
REMARK  159  A    between atoms: _380  and  _383
REMARK  160  A    between atoms: _385  and  _387
REMARK  161  A    between atoms: _387  and  _388
REMARK  162  A    between atoms: _387  and  _390
REMARK  163  A    between atoms: _390  and  _391
REMARK  164  A    between atoms: _391  and  _392
REMARK  165  A    between atoms: _394  and  _396
REMARK  166  A    between atoms: _396  and  _397
REMARK  167  A    between atoms: _396  and  _399
REMARK  168  A    between atoms: _399  and  _400
REMARK  169  A    between atoms: _403  and  _405
REMARK  170  A    between atoms: _405  and  _406
REMARK  171  A    between atoms: _405  and  _408
REMARK  172  A    between atoms: _411  and  _413
REMARK  173  A    between atoms: _413  and  _414
REMARK  174  A    between atoms: _413  and  _416
REMARK  175  A    between atoms: _416  and  _417
REMARK  176  A    between atoms: _417  and  _418
REMARK  177  A    between atoms: _423  and  _425
REMARK  178  A    between atoms: _425  and  _426
REMARK  179  A    between atoms: _425  and  _428
REMARK  180  A    between atoms: _428  and  _429
REMARK  181  A    between atoms: _432  and  _434
REMARK  182  A    between atoms: _434  and  _435
REMARK  183  A    between atoms: _434  and  _437
REMARK  184  A    between atoms: _437  and  _438
REMARK  185  A    between atoms: _443  and  _445
REMARK  186  A    between atoms: _445  and  _446
REMARK  187  A    between atoms: _445  and  _448
REMARK  188  A    between atoms: _448  and  _449
REMARK  189  A    between atoms: _452  and  _454
REMARK  190  A    between atoms: _454  and  _455
REMARK  191  A    between atoms: _454  and  _457
REMARK  192  A    between atoms: _457  and  _458
REMARK  193  A    between atoms: _463  and  _464
REMARK  194  A    between atoms: _466  and  _468
REMARK  195  A    between atoms: _468  and  _469
REMARK  196  A    between atoms: _468  and  _471
REMARK  197  A    between atoms: _473  and  _475
REMARK  198  A    between atoms: _475  and  _476
REMARK  199  A    between atoms: _475  and  _478
REMARK  200  A    between atoms: _478  and  _479
REMARK  201  A    between atoms: _482  and  _484
REMARK  202  A    between atoms: _484  and  _485
REMARK  203  A    between atoms: _484  and  _487
REMARK  204  A    between atoms: _487  and  _488
REMARK  205  A    between atoms: _493  and  _495
REMARK  206  A    between atoms: _495  and  _496
REMARK  207  A    between atoms: _495  and  _498
REMARK  208  A    between atoms: _498  and  _499
REMARK  209  A    between atoms: _502  and  _504
REMARK  210  A    between atoms: _504  and  _505
REMARK  211  A    between atoms: _504  and  _507
REMARK  212  A    between atoms: _507  and  _508
REMARK  213  A    between atoms: _514  and  _516
REMARK  214  A    between atoms: _516  and  _517
REMARK  215  A    between atoms: _516  and  _519
REMARK  216  A    between atoms: _522  and  _524
REMARK  217  A    between atoms: _524  and  _525
REMARK  218  A    between atoms: _524  and  _527
REMARK  219  A    between atoms: _527  and  _528
REMARK  220  A    between atoms: _528  and  _529
REMARK  221  A    between atoms: _532  and  _534
REMARK  222  A    between atoms: _534  and  _535
REMARK  223  A    between atoms: _534  and  _537
REMARK  224  A    between atoms: _537  and  _538
REMARK  225  A    between atoms: _545  and  _546
REMARK  226  A    between atoms: _551  and  _553
REMARK  227  A    between atoms: _553  and  _554
REMARK  228  A    between atoms: _553  and  _556
REMARK  229  A    between atoms: _556  and  _557
REMARK  230  A    between atoms: _557  and  _558
REMARK  231  A    between atoms: _561  and  _563
REMARK  232  A    between atoms: _563  and  _564
REMARK  233  A    between atoms: _563  and  _566
REMARK  234  A    between atoms: _566  and  _567
REMARK  235  A    between atoms: _567  and  _568
REMARK  236  A    between atoms: _570  and  _572
REMARK  237  A    between atoms: _572  and  _573
REMARK  238  A    between atoms: _572  and  _575
REMARK  239  A    between atoms: _575  and  _576
REMARK  240  A    between atoms: _576  and  _577
REMARK  241  A    between atoms: _579  and  _581
REMARK  242  A    between atoms: _581  and  _582
REMARK  243  A    between atoms: _581  and  _584
REMARK  244  A    between atoms: _584  and  _585
REMARK  245  A    between atoms: _587  and  _589
REMARK  246  A    between atoms: _589  and  _590
REMARK  247  A    between atoms: _589  and  _592
REMARK  248  A    between atoms: _592  and  _593
REMARK  249  A    between atoms: _593  and  _594
REMARK  250  A    between atoms: _597  and  _599
REMARK  251  A    between atoms: _599  and  _600
REMARK  252  A    between atoms: _599  and  _602
REMARK  253  A    between atoms: _605  and  _607
REMARK  254  A    between atoms: _607  and  _608
REMARK  255  A    between atoms: _607  and  _610
REMARK  256  A    between atoms: _610  and  _611
REMARK  257  A    between atoms: _614  and  _616
REMARK  258  A    between atoms: _616  and  _617
REMARK  259  A    between atoms: _616  and  _619
REMARK  260  A    between atoms: _619  and  _620
REMARK                            x       y       z     vdW  Elec       q    Type
REMARK                         _______ _______ _______ _____ _____    ______ ____
ROOT
ATOM      1  O   HOH     1       1.348   8.546   6.904  0.00  0.00    +0.000 OA
ENDROOT
TORSDOF 0
REMARK  Name = ../refined-set-2016/2w8y/2w8y_pocket.pdb
REMARK  260 active torsions:
REMARK  status: ('A' for Active; 'I' for Inactive)
REMARK    1  A    between atoms: _1  and  _3
REMARK    2  A    between atoms: _3  and  _4
REMARK    3  A    between atoms: _3  and  _6
REMARK    4  A    between atoms: _6  and  _7
REMARK    5  A    between atoms: _10  and  _12
REMARK    6  A    between atoms: _12  and  _13
REMARK    7  A    between atoms: _16  and  _18
REMARK    8  A    between atoms: _18  and  _19
REMARK    9  A    between atoms: _18  and  _21
REMARK   10  A    between atoms: _21  and  _22
REMARK   11  A    between atoms: _24  and  _26
REMARK   12  A    between atoms: _26  and  _27
REMARK   13  A    between atoms: _26  and  _29
REMARK   14  A    between atoms: _29  and  _30
REMARK   15  A    between atoms: _33  and  _35
REMARK   16  A    between atoms: _35  and  _36
REMARK   17  A    between atoms: _35  and  _38
REMARK   18  A    between atoms: _38  and  _39
REMARK   19  A    between atoms: _42  and  _44
REMARK   20  A    between atoms: _44  and  _45
REMARK   21  A    between atoms: _44  and  _47
REMARK   22  A    between atoms: _47  and  _48
REMARK   23  A    between atoms: _51  and  _53
REMARK   24  A    between atoms: _53  and  _54
REMARK   25  A    between atoms: _53  and  _56
REMARK   26  A    between atoms: _56  and  _57
REMARK   27  A    between atoms: _59  and  _61
REMARK   28  A    between atoms: _61  and  _62
REMARK   29  A    between atoms: _61  and  _64
REMARK   30  A    between atoms: _64  and  _65
REMARK   31  A    between atoms: _68  and  _70
REMARK   32  A    between atoms: _70  and  _71
REMARK   33  A    between atoms: _70  and  _73
REMARK   34  A    between atoms: _73  and  _74
REMARK   35  A    between atoms: _79  and  _81
REMARK   36  A    between atoms: _81  and  _82
REMARK   37  A    between atoms: _81  and  _84
REMARK   38  A    between atoms: _84  and  _85
REMARK   39  A    between atoms: _85  and  _86
REMARK   40  A    between atoms: _91  and  _93
REMARK   41  A    between atoms: _93  and  _94
REMARK   42  A    between atoms: _93  and  _96
REMARK   43  A    between atoms: _96  and  _97
REMARK   44  A    between atoms: _100  and  _102
REMARK   45  A    between atoms: _102  and  _103
REMARK   46  A    between atoms: _105  and  _107
REMARK   47  A    between atoms: _107  and  _108
REMARK   48  A    between atoms: _107  and  _110
REMARK   49  A    between atoms: _110  and  _111
REMARK   50  A    between atoms: _111  and  _112
REMARK   51  A    between atoms: _115  and  _117
REMARK   52  A    between atoms: _117  and  _118
REMARK   53  A    between atoms: _117  and  _120
REMARK   54  A    between atoms: _120  and  _121
REMARK   55  A    between atoms: _121  and  _122
REMARK   56  A    between atoms: _122  and  _123
REMARK   57  A    between atoms: _132  and  _134
REMARK   58  A    between atoms: _134  and  _135
REMARK   59  A    between atoms: _134  and  _137
REMARK   60  A    between atoms: _137  and  _138
REMARK   61  A    between atoms: _138  and  _139
REMARK   62  A    between atoms: _144  and  _146
REMARK   63  A    between atoms: _146  and  _147
REMARK   64  A    between atoms: _146  and  _149
REMARK   65  A    between atoms: _149  and  _150
REMARK   66  A    between atoms: _153  and  _155
REMARK   67  A    between atoms: _155  and  _156
REMARK   68  A    between atoms: _155  and  _158
REMARK   69  A    between atoms: _158  and  _159
REMARK   70  A    between atoms: _162  and  _164
REMARK   71  A    between atoms: _164  and  _165
REMARK   72  A    between atoms: _164  and  _167
REMARK   73  A    between atoms: _167  and  _168
REMARK   74  A    between atoms: _178  and  _180
REMARK   75  A    between atoms: _180  and  _181
REMARK   76  A    between atoms: _180  and  _183
REMARK   77  A    between atoms: _183  and  _184
REMARK   78  A    between atoms: _184  and  _185
REMARK   79  A    between atoms: _187  and  _189
REMARK   80  A    between atoms: _189  and  _190
REMARK   81  A    between atoms: _189  and  _192
REMARK   82  A    between atoms: _192  and  _193
REMARK   83  A    between atoms: _195  and  _197
REMARK   84  A    between atoms: _197  and  _198
REMARK   85  A    between atoms: _197  and  _200
REMARK   86  A    between atoms: _200  and  _201
REMARK   87  A    between atoms: _204  and  _206
REMARK   88  A    between atoms: _206  and  _207
REMARK   89  A    between atoms: _206  and  _209
REMARK   90  A    between atoms: _209  and  _210
REMARK   91  A    between atoms: _210  and  _211
REMARK   92  A    between atoms: _213  and  _215
REMARK   93  A    between atoms: _215  and  _216
REMARK   94  A    between atoms: _215  and  _218
REMARK   95  A    between atoms: _221  and  _223
REMARK   96  A    between atoms: _223  and  _224
REMARK   97  A    between atoms: _223  and  _226
REMARK   98  A    between atoms: _226  and  _227
REMARK   99  A    between atoms: _233  and  _235
REMARK  100  A    between atoms: _235  and  _236
REMARK  101  A    between atoms: _238  and  _240
REMARK  102  A    between atoms: _240  and  _241
REMARK  103  A    between atoms: _240  and  _243
REMARK  104  A    between atoms: _243  and  _244
REMARK  105  A    between atoms: _247  and  _249
REMARK  106  A    between atoms: _249  and  _250
REMARK  107  A    between atoms: _252  and  _254
REMARK  108  A    between atoms: _254  and  _255
REMARK  109  A    between atoms: _254  and  _257
REMARK  110  A    between atoms: _257  and  _258
REMARK  111  A    between atoms: _258  and  _259
REMARK  112  A    between atoms: _259  and  _260
REMARK  113  A    between atoms: _269  and  _271
REMARK  114  A    between atoms: _271  and  _272
REMARK  115  A    between atoms: _271  and  _274
REMARK  116  A    between atoms: _274  and  _275
REMARK  117  A    between atoms: _277  and  _279
REMARK  118  A    between atoms: _279  and  _280
REMARK  119  A    between atoms: _279  and  _282
REMARK  120  A    between atoms: _282  and  _283
REMARK  121  A    between atoms: _288  and  _289
REMARK  122  A    between atoms: _291  and  _293
REMARK  123  A    between atoms: _293  and  _294
REMARK  124  A    between atoms: _293  and  _296
REMARK  125  A    between atoms: _296  and  _297
REMARK  126  A    between atoms: _303  and  _305
REMARK  127  A    between atoms: _305  and  _306
REMARK  128  A    between atoms: _309  and  _311
REMARK  129  A    between atoms: _311  and  _312
REMARK  130  A    between atoms: _311  and  _314
REMARK  131  A    between atoms: _314  and  _315
REMARK  132  A    between atoms: _318  and  _320
REMARK  133  A    between atoms: _320  and  _321
REMARK  134  A    between atoms: _320  and  _323
REMARK  135  A    between atoms: _323  and  _324
REMARK  136  A    between atoms: _327  and  _329
REMARK  137  A    between atoms: _329  and  _330
REMARK  138  A    between atoms: _329  and  _332
REMARK  139  A    between atoms: _332  and  _333
REMARK  140  A    between atoms: _335  and  _337
REMARK  141  A    between atoms: _337  and  _338
REMARK  142  A    between atoms: _337  and  _340
REMARK  143  A    between atoms: _340  and  _341
REMARK  144  A    between atoms: _343  and  _345
REMARK  145  A    between atoms: _345  and  _346
REMARK  146  A    between atoms: _345  and  _348
REMARK  147  A    between atoms: _348  and  _349
REMARK  148  A    between atoms: _355  and  _357
REMARK  149  A    between atoms: _357  and  _358
REMARK  150  A    between atoms: _357  and  _360
REMARK  151  A    between atoms: _360  and  _361
REMARK  152  A    between atoms: _366  and  _367
REMARK  153  A    between atoms: _369  and  _371
REMARK  154  A    between atoms: _371  and  _372
REMARK  155  A    between atoms: _371  and  _374
REMARK  156  A    between atoms: _374  and  _375
REMARK  157  A    between atoms: _378  and  _380
REMARK  158  A    between atoms: _380  and  _381
REMARK  159  A    between atoms: _380  and  _383
REMARK  160  A    between atoms: _385  and  _387
REMARK  161  A    between atoms: _387  and  _388
REMARK  162  A    between atoms: _387  and  _390
REMARK  163  A    between atoms: _390  and  _391
REMARK  164  A    between atoms: _391  and  _392
REMARK  165  A    between atoms: _394  and  _396
REMARK  166  A    between atoms: _396  and  _397
REMARK  167  A    between atoms: _396  and  _399
REMARK  168  A    between atoms: _399  and  _400
REMARK  169  A    between atoms: _403  and  _405
REMARK  170  A    between atoms: _405  and  _406
REMARK  171  A    between atoms: _405  and  _408
REMARK  172  A    between atoms: _411  and  _413
REMARK  173  A    between atoms: _413  and  _414
REMARK  174  A    between atoms: _413  and  _416
REMARK  175  A    between atoms: _416  and  _417
REMARK  176  A    between atoms: _417  and  _418
REMARK  177  A    between atoms: _423  and  _425
REMARK  178  A    between atoms: _425  and  _426
REMARK  179  A    between atoms: _425  and  _428
REMARK  180  A    between atoms: _428  and  _429
REMARK  181  A    between atoms: _432  and  _434
REMARK  182  A    between atoms: _434  and  _435
REMARK  183  A    between atoms: _434  and  _437
REMARK  184  A    between atoms: _437  and  _438
REMARK  185  A    between atoms: _443  and  _445
REMARK  186  A    between atoms: _445  and  _446
REMARK  187  A    between atoms: _445  and  _448
REMARK  188  A    between atoms: _448  and  _449
REMARK  189  A    between atoms: _452  and  _454
REMARK  190  A    between atoms: _454  and  _455
REMARK  191  A    between atoms: _454  and  _457
REMARK  192  A    between atoms: _457  and  _458
REMARK  193  A    between atoms: _463  and  _464
REMARK  194  A    between atoms: _466  and  _468
REMARK  195  A    between atoms: _468  and  _469
REMARK  196  A    between atoms: _468  and  _471
REMARK  197  A    between atoms: _473  and  _475
REMARK  198  A    between atoms: _475  and  _476
REMARK  199  A    between atoms: _475  and  _478
REMARK  200  A    between atoms: _478  and  _479
REMARK  201  A    between atoms: _482  and  _484
REMARK  202  A    between atoms: _484  and  _485
REMARK  203  A    between atoms: _484  and  _487
REMARK  204  A    between atoms: _487  and  _488
REMARK  205  A    between atoms: _493  and  _495
REMARK  206  A    between atoms: _495  and  _496
REMARK  207  A    between atoms: _495  and  _498
REMARK  208  A    between atoms: _498  and  _499
REMARK  209  A    between atoms: _502  and  _504
REMARK  210  A    between atoms: _504  and  _505
REMARK  211  A    between atoms: _504  and  _507
REMARK  212  A    between atoms: _507  and  _508
REMARK  213  A    between atoms: _514  and  _516
REMARK  214  A    between atoms: _516  and  _517
REMARK  215  A    between atoms: _516  and  _519
REMARK  216  A    between atoms: _522  and  _524
REMARK  217  A    between atoms: _524  and  _525
REMARK  218  A    between atoms: _524  and  _527
REMARK  219  A    between atoms: _527  and  _528
REMARK  220  A    between atoms: _528  and  _529
REMARK  221  A    between atoms: _532  and  _534
REMARK  222  A    between atoms: _534  and  _535
REMARK  223  A    between atoms: _534  and  _537
REMARK  224  A    between atoms: _537  and  _538
REMARK  225  A    between atoms: _545  and  _546
REMARK  226  A    between atoms: _551  and  _553
REMARK  227  A    between atoms: _553  and  _554
REMARK  228  A    between atoms: _553  and  _556
REMARK  229  A    between atoms: _556  and  _557
REMARK  230  A    between atoms: _557  and  _558
REMARK  231  A    between atoms: _561  and  _563
REMARK  232  A    between atoms: _563  and  _564
REMARK  233  A    between atoms: _563  and  _566
REMARK  234  A    between atoms: _566  and  _567
REMARK  235  A    between atoms: _567  and  _568
REMARK  236  A    between atoms: _570  and  _572
REMARK  237  A    between atoms: _572  and  _573
REMARK  238  A    between atoms: _572  and  _575
REMARK  239  A    between atoms: _575  and  _576
REMARK  240  A    between atoms: _576  and  _577
REMARK  241  A    between atoms: _579  and  _581
REMARK  242  A    between atoms: _581  and  _582
REMARK  243  A    between atoms: _581  and  _584
REMARK  244  A    between atoms: _584  and  _585
REMARK  245  A    between atoms: _587  and  _589
REMARK  246  A    between atoms: _589  and  _590
REMARK  247  A    between atoms: _589  and  _592
REMARK  248  A    between atoms: _592  and  _593
REMARK  249  A    between atoms: _593  and  _594
REMARK  250  A    between atoms: _597  and  _599
REMARK  251  A    between atoms: _599  and  _600
REMARK  252  A    between atoms: _599  and  _602
REMARK  253  A    between atoms: _605  and  _607
REMARK  254  A    between atoms: _607  and  _608
REMARK  255  A    between atoms: _607  and  _610
REMARK  256  A    between atoms: _610  and  _611
REMARK  257  A    between atoms: _614  and  _616
REMARK  258  A    between atoms: _616  and  _617
REMARK  259  A    between atoms: _616  and  _619
REMARK  260  A    between atoms: _619  and  _620
REMARK                            x       y       z     vdW  Elec       q    Type
REMARK                         _______ _______ _______ _____ _____    ______ ____
ROOT
ATOM      1  O   HOH     1       7.004   5.716  11.921  0.00  0.00    +0.000 OA
ENDROOT
TORSDOF 0
REMARK  Name = ../refined-set-2016/2w8y/2w8y_pocket.pdb
REMARK  260 active torsions:
REMARK  status: ('A' for Active; 'I' for Inactive)
REMARK    1  A    between atoms: _1  and  _3
REMARK    2  A    between atoms: _3  and  _4
REMARK    3  A    between atoms: _3  and  _6
REMARK    4  A    between atoms: _6  and  _7
REMARK    5  A    between atoms: _10  and  _12
REMARK    6  A    between atoms: _12  and  _13
REMARK    7  A    between atoms: _16  and  _18
REMARK    8  A    between atoms: _18  and  _19
REMARK    9  A    between atoms: _18  and  _21
REMARK   10  A    between atoms: _21  and  _22
REMARK   11  A    between atoms: _24  and  _26
REMARK   12  A    between atoms: _26  and  _27
REMARK   13  A    between atoms: _26  and  _29
REMARK   14  A    between atoms: _29  and  _30
REMARK   15  A    between atoms: _33  and  _35
REMARK   16  A    between atoms: _35  and  _36
REMARK   17  A    between atoms: _35  and  _38
REMARK   18  A    between atoms: _38  and  _39
REMARK   19  A    between atoms: _42  and  _44
REMARK   20  A    between atoms: _44  and  _45
REMARK   21  A    between atoms: _44  and  _47
REMARK   22  A    between atoms: _47  and  _48
REMARK   23  A    between atoms: _51  and  _53
REMARK   24  A    between atoms: _53  and  _54
REMARK   25  A    between atoms: _53  and  _56
REMARK   26  A    between atoms: _56  and  _57
REMARK   27  A    between atoms: _59  and  _61
REMARK   28  A    between atoms: _61  and  _62
REMARK   29  A    between atoms: _61  and  _64
REMARK   30  A    between atoms: _64  and  _65
REMARK   31  A    between atoms: _68  and  _70
REMARK   32  A    between atoms: _70  and  _71
REMARK   33  A    between atoms: _70  and  _73
REMARK   34  A    between atoms: _73  and  _74
REMARK   35  A    between atoms: _79  and  _81
REMARK   36  A    between atoms: _81  and  _82
REMARK   37  A    between atoms: _81  and  _84
REMARK   38  A    between atoms: _84  and  _85
REMARK   39  A    between atoms: _85  and  _86
REMARK   40  A    between atoms: _91  and  _93
REMARK   41  A    between atoms: _93  and  _94
REMARK   42  A    between atoms: _93  and  _96
REMARK   43  A    between atoms: _96  and  _97
REMARK   44  A    between atoms: _100  and  _102
REMARK   45  A    between atoms: _102  and  _103
REMARK   46  A    between atoms: _105  and  _107
REMARK   47  A    between atoms: _107  and  _108
REMARK   48  A    between atoms: _107  and  _110
REMARK   49  A    between atoms: _110  and  _111
REMARK   50  A    between atoms: _111  and  _112
REMARK   51  A    between atoms: _115  and  _117
REMARK   52  A    between atoms: _117  and  _118
REMARK   53  A    between atoms: _117  and  _120
REMARK   54  A    between atoms: _120  and  _121
REMARK   55  A    between atoms: _121  and  _122
REMARK   56  A    between atoms: _122  and  _123
REMARK   57  A    between atoms: _132  and  _134
REMARK   58  A    between atoms: _134  and  _135
REMARK   59  A    between atoms: _134  and  _137
REMARK   60  A    between atoms: _137  and  _138
REMARK   61  A    between atoms: _138  and  _139
REMARK   62  A    between atoms: _144  and  _146
REMARK   63  A    between atoms: _146  and  _147
REMARK   64  A    between atoms: _146  and  _149
REMARK   65  A    between atoms: _149  and  _150
REMARK   66  A    between atoms: _153  and  _155
REMARK   67  A    between atoms: _155  and  _156
REMARK   68  A    between atoms: _155  and  _158
REMARK   69  A    between atoms: _158  and  _159
REMARK   70  A    between atoms: _162  and  _164
REMARK   71  A    between atoms: _164  and  _165
REMARK   72  A    between atoms: _164  and  _167
REMARK   73  A    between atoms: _167  and  _168
REMARK   74  A    between atoms: _178  and  _180
REMARK   75  A    between atoms: _180  and  _181
REMARK   76  A    between atoms: _180  and  _183
REMARK   77  A    between atoms: _183  and  _184
REMARK   78  A    between atoms: _184  and  _185
REMARK   79  A    between atoms: _187  and  _189
REMARK   80  A    between atoms: _189  and  _190
REMARK   81  A    between atoms: _189  and  _192
REMARK   82  A    between atoms: _192  and  _193
REMARK   83  A    between atoms: _195  and  _197
REMARK   84  A    between atoms: _197  and  _198
REMARK   85  A    between atoms: _197  and  _200
REMARK   86  A    between atoms: _200  and  _201
REMARK   87  A    between atoms: _204  and  _206
REMARK   88  A    between atoms: _206  and  _207
REMARK   89  A    between atoms: _206  and  _209
REMARK   90  A    between atoms: _209  and  _210
REMARK   91  A    between atoms: _210  and  _211
REMARK   92  A    between atoms: _213  and  _215
REMARK   93  A    between atoms: _215  and  _216
REMARK   94  A    between atoms: _215  and  _218
REMARK   95  A    between atoms: _221  and  _223
REMARK   96  A    between atoms: _223  and  _224
REMARK   97  A    between atoms: _223  and  _226
REMARK   98  A    between atoms: _226  and  _227
REMARK   99  A    between atoms: _233  and  _235
REMARK  100  A    between atoms: _235  and  _236
REMARK  101  A    between atoms: _238  and  _240
REMARK  102  A    between atoms: _240  and  _241
REMARK  103  A    between atoms: _240  and  _243
REMARK  104  A    between atoms: _243  and  _244
REMARK  105  A    between atoms: _247  and  _249
REMARK  106  A    between atoms: _249  and  _250
REMARK  107  A    between atoms: _252  and  _254
REMARK  108  A    between atoms: _254  and  _255
REMARK  109  A    between atoms: _254  and  _257
REMARK  110  A    between atoms: _257  and  _258
REMARK  111  A    between atoms: _258  and  _259
REMARK  112  A    between atoms: _259  and  _260
REMARK  113  A    between atoms: _269  and  _271
REMARK  114  A    between atoms: _271  and  _272
REMARK  115  A    between atoms: _271  and  _274
REMARK  116  A    between atoms: _274  and  _275
REMARK  117  A    between atoms: _277  and  _279
REMARK  118  A    between atoms: _279  and  _280
REMARK  119  A    between atoms: _279  and  _282
REMARK  120  A    between atoms: _282  and  _283
REMARK  121  A    between atoms: _288  and  _289
REMARK  122  A    between atoms: _291  and  _293
REMARK  123  A    between atoms: _293  and  _294
REMARK  124  A    between atoms: _293  and  _296
REMARK  125  A    between atoms: _296  and  _297
REMARK  126  A    between atoms: _303  and  _305
REMARK  127  A    between atoms: _305  and  _306
REMARK  128  A    between atoms: _309  and  _311
REMARK  129  A    between atoms: _311  and  _312
REMARK  130  A    between atoms: _311  and  _314
REMARK  131  A    between atoms: _314  and  _315
REMARK  132  A    between atoms: _318  and  _320
REMARK  133  A    between atoms: _320  and  _321
REMARK  134  A    between atoms: _320  and  _323
REMARK  135  A    between atoms: _323  and  _324
REMARK  136  A    between atoms: _327  and  _329
REMARK  137  A    between atoms: _329  and  _330
REMARK  138  A    between atoms: _329  and  _332
REMARK  139  A    between atoms: _332  and  _333
REMARK  140  A    between atoms: _335  and  _337
REMARK  141  A    between atoms: _337  and  _338
REMARK  142  A    between atoms: _337  and  _340
REMARK  143  A    between atoms: _340  and  _341
REMARK  144  A    between atoms: _343  and  _345
REMARK  145  A    between atoms: _345  and  _346
REMARK  146  A    between atoms: _345  and  _348
REMARK  147  A    between atoms: _348  and  _349
REMARK  148  A    between atoms: _355  and  _357
REMARK  149  A    between atoms: _357  and  _358
REMARK  150  A    between atoms: _357  and  _360
REMARK  151  A    between atoms: _360  and  _361
REMARK  152  A    between atoms: _366  and  _367
REMARK  153  A    between atoms: _369  and  _371
REMARK  154  A    between atoms: _371  and  _372
REMARK  155  A    between atoms: _371  and  _374
REMARK  156  A    between atoms: _374  and  _375
REMARK  157  A    between atoms: _378  and  _380
REMARK  158  A    between atoms: _380  and  _381
REMARK  159  A    between atoms: _380  and  _383
REMARK  160  A    between atoms: _385  and  _387
REMARK  161  A    between atoms: _387  and  _388
REMARK  162  A    between atoms: _387  and  _390
REMARK  163  A    between atoms: _390  and  _391
REMARK  164  A    between atoms: _391  and  _392
REMARK  165  A    between atoms: _394  and  _396
REMARK  166  A    between atoms: _396  and  _397
REMARK  167  A    between atoms: _396  and  _399
REMARK  168  A    between atoms: _399  and  _400
REMARK  169  A    between atoms: _403  and  _405
REMARK  170  A    between atoms: _405  and  _406
REMARK  171  A    between atoms: _405  and  _408
REMARK  172  A    between atoms: _411  and  _413
REMARK  173  A    between atoms: _413  and  _414
REMARK  174  A    between atoms: _413  and  _416
REMARK  175  A    between atoms: _416  and  _417
REMARK  176  A    between atoms: _417  and  _418
REMARK  177  A    between atoms: _423  and  _425
REMARK  178  A    between atoms: _425  and  _426
REMARK  179  A    between atoms: _425  and  _428
REMARK  180  A    between atoms: _428  and  _429
REMARK  181  A    between atoms: _432  and  _434
REMARK  182  A    between atoms: _434  and  _435
REMARK  183  A    between atoms: _434  and  _437
REMARK  184  A    between atoms: _437  and  _438
REMARK  185  A    between atoms: _443  and  _445
REMARK  186  A    between atoms: _445  and  _446
REMARK  187  A    between atoms: _445  and  _448
REMARK  188  A    between atoms: _448  and  _449
REMARK  189  A    between atoms: _452  and  _454
REMARK  190  A    between atoms: _454  and  _455
REMARK  191  A    between atoms: _454  and  _457
REMARK  192  A    between atoms: _457  and  _458
REMARK  193  A    between atoms: _463  and  _464
REMARK  194  A    between atoms: _466  and  _468
REMARK  195  A    between atoms: _468  and  _469
REMARK  196  A    between atoms: _468  and  _471
REMARK  197  A    between atoms: _473  and  _475
REMARK  198  A    between atoms: _475  and  _476
REMARK  199  A    between atoms: _475  and  _478
REMARK  200  A    between atoms: _478  and  _479
REMARK  201  A    between atoms: _482  and  _484
REMARK  202  A    between atoms: _484  and  _485
REMARK  203  A    between atoms: _484  and  _487
REMARK  204  A    between atoms: _487  and  _488
REMARK  205  A    between atoms: _493  and  _495
REMARK  206  A    between atoms: _495  and  _496
REMARK  207  A    between atoms: _495  and  _498
REMARK  208  A    between atoms: _498  and  _499
REMARK  209  A    between atoms: _502  and  _504
REMARK  210  A    between atoms: _504  and  _505
REMARK  211  A    between atoms: _504  and  _507
REMARK  212  A    between atoms: _507  and  _508
REMARK  213  A    between atoms: _514  and  _516
REMARK  214  A    between atoms: _516  and  _517
REMARK  215  A    between atoms: _516  and  _519
REMARK  216  A    between atoms: _522  and  _524
REMARK  217  A    between atoms: _524  and  _525
REMARK  218  A    between atoms: _524  and  _527
REMARK  219  A    between atoms: _527  and  _528
REMARK  220  A    between atoms: _528  and  _529
REMARK  221  A    between atoms: _532  and  _534
REMARK  222  A    between atoms: _534  and  _535
REMARK  223  A    between atoms: _534  and  _537
REMARK  224  A    between atoms: _537  and  _538
REMARK  225  A    between atoms: _545  and  _546
REMARK  226  A    between atoms: _551  and  _553
REMARK  227  A    between atoms: _553  and  _554
REMARK  228  A    between atoms: _553  and  _556
REMARK  229  A    between atoms: _556  and  _557
REMARK  230  A    between atoms: _557  and  _558
REMARK  231  A    between atoms: _561  and  _563
REMARK  232  A    between atoms: _563  and  _564
REMARK  233  A    between atoms: _563  and  _566
REMARK  234  A    between atoms: _566  and  _567
REMARK  235  A    between atoms: _567  and  _568
REMARK  236  A    between atoms: _570  and  _572
REMARK  237  A    between atoms: _572  and  _573
REMARK  238  A    between atoms: _572  and  _575
REMARK  239  A    between atoms: _575  and  _576
REMARK  240  A    between atoms: _576  and  _577
REMARK  241  A    between atoms: _579  and  _581
REMARK  242  A    between atoms: _581  and  _582
REMARK  243  A    between atoms: _581  and  _584
REMARK  244  A    between atoms: _584  and  _585
REMARK  245  A    between atoms: _587  and  _589
REMARK  246  A    between atoms: _589  and  _590
REMARK  247  A    between atoms: _589  and  _592
REMARK  248  A    between atoms: _592  and  _593
REMARK  249  A    between atoms: _593  and  _594
REMARK  250  A    between atoms: _597  and  _599
REMARK  251  A    between atoms: _599  and  _600
REMARK  252  A    between atoms: _599  and  _602
REMARK  253  A    between atoms: _605  and  _607
REMARK  254  A    between atoms: _607  and  _608
REMARK  255  A    between atoms: _607  and  _610
REMARK  256  A    between atoms: _610  and  _611
REMARK  257  A    between atoms: _614  and  _616
REMARK  258  A    between atoms: _616  and  _617
REMARK  259  A    between atoms: _616  and  _619
REMARK  260  A    between atoms: _619  and  _620
REMARK                            x       y       z     vdW  Elec       q    Type
REMARK                         _______ _______ _______ _____ _____    ______ ____
ROOT
ATOM      1  O   HOH     1      14.903   5.436   0.793  0.00  0.00    +0.000 OA
ENDROOT
TORSDOF 0
REMARK  Name = ../refined-set-2016/2w8y/2w8y_pocket.pdb
REMARK  260 active torsions:
REMARK  status: ('A' for Active; 'I' for Inactive)
REMARK    1  A    between atoms: _1  and  _3
REMARK    2  A    between atoms: _3  and  _4
REMARK    3  A    between atoms: _3  and  _6
REMARK    4  A    between atoms: _6  and  _7
REMARK    5  A    between atoms: _10  and  _12
REMARK    6  A    between atoms: _12  and  _13
REMARK    7  A    between atoms: _16  and  _18
REMARK    8  A    between atoms: _18  and  _19
REMARK    9  A    between atoms: _18  and  _21
REMARK   10  A    between atoms: _21  and  _22
REMARK   11  A    between atoms: _24  and  _26
REMARK   12  A    between atoms: _26  and  _27
REMARK   13  A    between atoms: _26  and  _29
REMARK   14  A    between atoms: _29  and  _30
REMARK   15  A    between atoms: _33  and  _35
REMARK   16  A    between atoms: _35  and  _36
REMARK   17  A    between atoms: _35  and  _38
REMARK   18  A    between atoms: _38  and  _39
REMARK   19  A    between atoms: _42  and  _44
REMARK   20  A    between atoms: _44  and  _45
REMARK   21  A    between atoms: _44  and  _47
REMARK   22  A    between atoms: _47  and  _48
REMARK   23  A    between atoms: _51  and  _53
REMARK   24  A    between atoms: _53  and  _54
REMARK   25  A    between atoms: _53  and  _56
REMARK   26  A    between atoms: _56  and  _57
REMARK   27  A    between atoms: _59  and  _61
REMARK   28  A    between atoms: _61  and  _62
REMARK   29  A    between atoms: _61  and  _64
REMARK   30  A    between atoms: _64  and  _65
REMARK   31  A    between atoms: _68  and  _70
REMARK   32  A    between atoms: _70  and  _71
REMARK   33  A    between atoms: _70  and  _73
REMARK   34  A    between atoms: _73  and  _74
REMARK   35  A    between atoms: _79  and  _81
REMARK   36  A    between atoms: _81  and  _82
REMARK   37  A    between atoms: _81  and  _84
REMARK   38  A    between atoms: _84  and  _85
REMARK   39  A    between atoms: _85  and  _86
REMARK   40  A    between atoms: _91  and  _93
REMARK   41  A    between atoms: _93  and  _94
REMARK   42  A    between atoms: _93  and  _96
REMARK   43  A    between atoms: _96  and  _97
REMARK   44  A    between atoms: _100  and  _102
REMARK   45  A    between atoms: _102  and  _103
REMARK   46  A    between atoms: _105  and  _107
REMARK   47  A    between atoms: _107  and  _108
REMARK   48  A    between atoms: _107  and  _110
REMARK   49  A    between atoms: _110  and  _111
REMARK   50  A    between atoms: _111  and  _112
REMARK   51  A    between atoms: _115  and  _117
REMARK   52  A    between atoms: _117  and  _118
REMARK   53  A    between atoms: _117  and  _120
REMARK   54  A    between atoms: _120  and  _121
REMARK   55  A    between atoms: _121  and  _122
REMARK   56  A    between atoms: _122  and  _123
REMARK   57  A    between atoms: _132  and  _134
REMARK   58  A    between atoms: _134  and  _135
REMARK   59  A    between atoms: _134  and  _137
REMARK   60  A    between atoms: _137  and  _138
REMARK   61  A    between atoms: _138  and  _139
REMARK   62  A    between atoms: _144  and  _146
REMARK   63  A    between atoms: _146  and  _147
REMARK   64  A    between atoms: _146  and  _149
REMARK   65  A    between atoms: _149  and  _150
REMARK   66  A    between atoms: _153  and  _155
REMARK   67  A    between atoms: _155  and  _156
REMARK   68  A    between atoms: _155  and  _158
REMARK   69  A    between atoms: _158  and  _159
REMARK   70  A    between atoms: _162  and  _164
REMARK   71  A    between atoms: _164  and  _165
REMARK   72  A    between atoms: _164  and  _167
REMARK   73  A    between atoms: _167  and  _168
REMARK   74  A    between atoms: _178  and  _180
REMARK   75  A    between atoms: _180  and  _181
REMARK   76  A    between atoms: _180  and  _183
REMARK   77  A    between atoms: _183  and  _184
REMARK   78  A    between atoms: _184  and  _185
REMARK   79  A    between atoms: _187  and  _189
REMARK   80  A    between atoms: _189  and  _190
REMARK   81  A    between atoms: _189  and  _192
REMARK   82  A    between atoms: _192  and  _193
REMARK   83  A    between atoms: _195  and  _197
REMARK   84  A    between atoms: _197  and  _198
REMARK   85  A    between atoms: _197  and  _200
REMARK   86  A    between atoms: _200  and  _201
REMARK   87  A    between atoms: _204  and  _206
REMARK   88  A    between atoms: _206  and  _207
REMARK   89  A    between atoms: _206  and  _209
REMARK   90  A    between atoms: _209  and  _210
REMARK   91  A    between atoms: _210  and  _211
REMARK   92  A    between atoms: _213  and  _215
REMARK   93  A    between atoms: _215  and  _216
REMARK   94  A    between atoms: _215  and  _218
REMARK   95  A    between atoms: _221  and  _223
REMARK   96  A    between atoms: _223  and  _224
REMARK   97  A    between atoms: _223  and  _226
REMARK   98  A    between atoms: _226  and  _227
REMARK   99  A    between atoms: _233  and  _235
REMARK  100  A    between atoms: _235  and  _236
REMARK  101  A    between atoms: _238  and  _240
REMARK  102  A    between atoms: _240  and  _241
REMARK  103  A    between atoms: _240  and  _243
REMARK  104  A    between atoms: _243  and  _244
REMARK  105  A    between atoms: _247  and  _249
REMARK  106  A    between atoms: _249  and  _250
REMARK  107  A    between atoms: _252  and  _254
REMARK  108  A    between atoms: _254  and  _255
REMARK  109  A    between atoms: _254  and  _257
REMARK  110  A    between atoms: _257  and  _258
REMARK  111  A    between atoms: _258  and  _259
REMARK  112  A    between atoms: _259  and  _260
REMARK  113  A    between atoms: _269  and  _271
REMARK  114  A    between atoms: _271  and  _272
REMARK  115  A    between atoms: _271  and  _274
REMARK  116  A    between atoms: _274  and  _275
REMARK  117  A    between atoms: _277  and  _279
REMARK  118  A    between atoms: _279  and  _280
REMARK  119  A    between atoms: _279  and  _282
REMARK  120  A    between atoms: _282  and  _283
REMARK  121  A    between atoms: _288  and  _289
REMARK  122  A    between atoms: _291  and  _293
REMARK  123  A    between atoms: _293  and  _294
REMARK  124  A    between atoms: _293  and  _296
REMARK  125  A    between atoms: _296  and  _297
REMARK  126  A    between atoms: _303  and  _305
REMARK  127  A    between atoms: _305  and  _306
REMARK  128  A    between atoms: _309  and  _311
REMARK  129  A    between atoms: _311  and  _312
REMARK  130  A    between atoms: _311  and  _314
REMARK  131  A    between atoms: _314  and  _315
REMARK  132  A    between atoms: _318  and  _320
REMARK  133  A    between atoms: _320  and  _321
REMARK  134  A    between atoms: _320  and  _323
REMARK  135  A    between atoms: _323  and  _324
REMARK  136  A    between atoms: _327  and  _329
REMARK  137  A    between atoms: _329  and  _330
REMARK  138  A    between atoms: _329  and  _332
REMARK  139  A    between atoms: _332  and  _333
REMARK  140  A    between atoms: _335  and  _337
REMARK  141  A    between atoms: _337  and  _338
REMARK  142  A    between atoms: _337  and  _340
REMARK  143  A    between atoms: _340  and  _341
REMARK  144  A    between atoms: _343  and  _345
REMARK  145  A    between atoms: _345  and  _346
REMARK  146  A    between atoms: _345  and  _348
REMARK  147  A    between atoms: _348  and  _349
REMARK  148  A    between atoms: _355  and  _357
REMARK  149  A    between atoms: _357  and  _358
REMARK  150  A    between atoms: _357  and  _360
REMARK  151  A    between atoms: _360  and  _361
REMARK  152  A    between atoms: _366  and  _367
REMARK  153  A    between atoms: _369  and  _371
REMARK  154  A    between atoms: _371  and  _372
REMARK  155  A    between atoms: _371  and  _374
REMARK  156  A    between atoms: _374  and  _375
REMARK  157  A    between atoms: _378  and  _380
REMARK  158  A    between atoms: _380  and  _381
REMARK  159  A    between atoms: _380  and  _383
REMARK  160  A    between atoms: _385  and  _387
REMARK  161  A    between atoms: _387  and  _388
REMARK  162  A    between atoms: _387  and  _390
REMARK  163  A    between atoms: _390  and  _391
REMARK  164  A    between atoms: _391  and  _392
REMARK  165  A    between atoms: _394  and  _396
REMARK  166  A    between atoms: _396  and  _397
REMARK  167  A    between atoms: _396  and  _399
REMARK  168  A    between atoms: _399  and  _400
REMARK  169  A    between atoms: _403  and  _405
REMARK  170  A    between atoms: _405  and  _406
REMARK  171  A    between atoms: _405  and  _408
REMARK  172  A    between atoms: _411  and  _413
REMARK  173  A    between atoms: _413  and  _414
REMARK  174  A    between atoms: _413  and  _416
REMARK  175  A    between atoms: _416  and  _417
REMARK  176  A    between atoms: _417  and  _418
REMARK  177  A    between atoms: _423  and  _425
REMARK  178  A    between atoms: _425  and  _426
REMARK  179  A    between atoms: _425  and  _428
REMARK  180  A    between atoms: _428  and  _429
REMARK  181  A    between atoms: _432  and  _434
REMARK  182  A    between atoms: _434  and  _435
REMARK  183  A    between atoms: _434  and  _437
REMARK  184  A    between atoms: _437  and  _438
REMARK  185  A    between atoms: _443  and  _445
REMARK  186  A    between atoms: _445  and  _446
REMARK  187  A    between atoms: _445  and  _448
REMARK  188  A    between atoms: _448  and  _449
REMARK  189  A    between atoms: _452  and  _454
REMARK  190  A    between atoms: _454  and  _455
REMARK  191  A    between atoms: _454  and  _457
REMARK  192  A    between atoms: _457  and  _458
REMARK  193  A    between atoms: _463  and  _464
REMARK  194  A    between atoms: _466  and  _468
REMARK  195  A    between atoms: _468  and  _469
REMARK  196  A    between atoms: _468  and  _471
REMARK  197  A    between atoms: _473  and  _475
REMARK  198  A    between atoms: _475  and  _476
REMARK  199  A    between atoms: _475  and  _478
REMARK  200  A    between atoms: _478  and  _479
REMARK  201  A    between atoms: _482  and  _484
REMARK  202  A    between atoms: _484  and  _485
REMARK  203  A    between atoms: _484  and  _487
REMARK  204  A    between atoms: _487  and  _488
REMARK  205  A    between atoms: _493  and  _495
REMARK  206  A    between atoms: _495  and  _496
REMARK  207  A    between atoms: _495  and  _498
REMARK  208  A    between atoms: _498  and  _499
REMARK  209  A    between atoms: _502  and  _504
REMARK  210  A    between atoms: _504  and  _505
REMARK  211  A    between atoms: _504  and  _507
REMARK  212  A    between atoms: _507  and  _508
REMARK  213  A    between atoms: _514  and  _516
REMARK  214  A    between atoms: _516  and  _517
REMARK  215  A    between atoms: _516  and  _519
REMARK  216  A    between atoms: _522  and  _524
REMARK  217  A    between atoms: _524  and  _525
REMARK  218  A    between atoms: _524  and  _527
REMARK  219  A    between atoms: _527  and  _528
REMARK  220  A    between atoms: _528  and  _529
REMARK  221  A    between atoms: _532  and  _534
REMARK  222  A    between atoms: _534  and  _535
REMARK  223  A    between atoms: _534  and  _537
REMARK  224  A    between atoms: _537  and  _538
REMARK  225  A    between atoms: _545  and  _546
REMARK  226  A    between atoms: _551  and  _553
REMARK  227  A    between atoms: _553  and  _554
REMARK  228  A    between atoms: _553  and  _556
REMARK  229  A    between atoms: _556  and  _557
REMARK  230  A    between atoms: _557  and  _558
REMARK  231  A    between atoms: _561  and  _563
REMARK  232  A    between atoms: _563  and  _564
REMARK  233  A    between atoms: _563  and  _566
REMARK  234  A    between atoms: _566  and  _567
REMARK  235  A    between atoms: _567  and  _568
REMARK  236  A    between atoms: _570  and  _572
REMARK  237  A    between atoms: _572  and  _573
REMARK  238  A    between atoms: _572  and  _575
REMARK  239  A    between atoms: _575  and  _576
REMARK  240  A    between atoms: _576  and  _577
REMARK  241  A    between atoms: _579  and  _581
REMARK  242  A    between atoms: _581  and  _582
REMARK  243  A    between atoms: _581  and  _584
REMARK  244  A    between atoms: _584  and  _585
REMARK  245  A    between atoms: _587  and  _589
REMARK  246  A    between atoms: _589  and  _590
REMARK  247  A    between atoms: _589  and  _592
REMARK  248  A    between atoms: _592  and  _593
REMARK  249  A    between atoms: _593  and  _594
REMARK  250  A    between atoms: _597  and  _599
REMARK  251  A    between atoms: _599  and  _600
REMARK  252  A    between atoms: _599  and  _602
REMARK  253  A    between atoms: _605  and  _607
REMARK  254  A    between atoms: _607  and  _608
REMARK  255  A    between atoms: _607  and  _610
REMARK  256  A    between atoms: _610  and  _611
REMARK  257  A    between atoms: _614  and  _616
REMARK  258  A    between atoms: _616  and  _617
REMARK  259  A    between atoms: _616  and  _619
REMARK  260  A    between atoms: _619  and  _620
REMARK                            x       y       z     vdW  Elec       q    Type
REMARK                         _______ _______ _______ _____ _____    ______ ____
ROOT
ATOM      1  O   HOH     1      16.149   2.614  -1.760  0.00  0.00    +0.000 OA
ENDROOT
TORSDOF 0
REMARK  Name = ../refined-set-2016/2w8y/2w8y_pocket.pdb
REMARK  260 active torsions:
REMARK  status: ('A' for Active; 'I' for Inactive)
REMARK    1  A    between atoms: _1  and  _3
REMARK    2  A    between atoms: _3  and  _4
REMARK    3  A    between atoms: _3  and  _6
REMARK    4  A    between atoms: _6  and  _7
REMARK    5  A    between atoms: _10  and  _12
REMARK    6  A    between atoms: _12  and  _13
REMARK    7  A    between atoms: _16  and  _18
REMARK    8  A    between atoms: _18  and  _19
REMARK    9  A    between atoms: _18  and  _21
REMARK   10  A    between atoms: _21  and  _22
REMARK   11  A    between atoms: _24  and  _26
REMARK   12  A    between atoms: _26  and  _27
REMARK   13  A    between atoms: _26  and  _29
REMARK   14  A    between atoms: _29  and  _30
REMARK   15  A    between atoms: _33  and  _35
REMARK   16  A    between atoms: _35  and  _36
REMARK   17  A    between atoms: _35  and  _38
REMARK   18  A    between atoms: _38  and  _39
REMARK   19  A    between atoms: _42  and  _44
REMARK   20  A    between atoms: _44  and  _45
REMARK   21  A    between atoms: _44  and  _47
REMARK   22  A    between atoms: _47  and  _48
REMARK   23  A    between atoms: _51  and  _53
REMARK   24  A    between atoms: _53  and  _54
REMARK   25  A    between atoms: _53  and  _56
REMARK   26  A    between atoms: _56  and  _57
REMARK   27  A    between atoms: _59  and  _61
REMARK   28  A    between atoms: _61  and  _62
REMARK   29  A    between atoms: _61  and  _64
REMARK   30  A    between atoms: _64  and  _65
REMARK   31  A    between atoms: _68  and  _70
REMARK   32  A    between atoms: _70  and  _71
REMARK   33  A    between atoms: _70  and  _73
REMARK   34  A    between atoms: _73  and  _74
REMARK   35  A    between atoms: _79  and  _81
REMARK   36  A    between atoms: _81  and  _82
REMARK   37  A    between atoms: _81  and  _84
REMARK   38  A    between atoms: _84  and  _85
REMARK   39  A    between atoms: _85  and  _86
REMARK   40  A    between atoms: _91  and  _93
REMARK   41  A    between atoms: _93  and  _94
REMARK   42  A    between atoms: _93  and  _96
REMARK   43  A    between atoms: _96  and  _97
REMARK   44  A    between atoms: _100  and  _102
REMARK   45  A    between atoms: _102  and  _103
REMARK   46  A    between atoms: _105  and  _107
REMARK   47  A    between atoms: _107  and  _108
REMARK   48  A    between atoms: _107  and  _110
REMARK   49  A    between atoms: _110  and  _111
REMARK   50  A    between atoms: _111  and  _112
REMARK   51  A    between atoms: _115  and  _117
REMARK   52  A    between atoms: _117  and  _118
REMARK   53  A    between atoms: _117  and  _120
REMARK   54  A    between atoms: _120  and  _121
REMARK   55  A    between atoms: _121  and  _122
REMARK   56  A    between atoms: _122  and  _123
REMARK   57  A    between atoms: _132  and  _134
REMARK   58  A    between atoms: _134  and  _135
REMARK   59  A    between atoms: _134  and  _137
REMARK   60  A    between atoms: _137  and  _138
REMARK   61  A    between atoms: _138  and  _139
REMARK   62  A    between atoms: _144  and  _146
REMARK   63  A    between atoms: _146  and  _147
REMARK   64  A    between atoms: _146  and  _149
REMARK   65  A    between atoms: _149  and  _150
REMARK   66  A    between atoms: _153  and  _155
REMARK   67  A    between atoms: _155  and  _156
REMARK   68  A    between atoms: _155  and  _158
REMARK   69  A    between atoms: _158  and  _159
REMARK   70  A    between atoms: _162  and  _164
REMARK   71  A    between atoms: _164  and  _165
REMARK   72  A    between atoms: _164  and  _167
REMARK   73  A    between atoms: _167  and  _168
REMARK   74  A    between atoms: _178  and  _180
REMARK   75  A    between atoms: _180  and  _181
REMARK   76  A    between atoms: _180  and  _183
REMARK   77  A    between atoms: _183  and  _184
REMARK   78  A    between atoms: _184  and  _185
REMARK   79  A    between atoms: _187  and  _189
REMARK   80  A    between atoms: _189  and  _190
REMARK   81  A    between atoms: _189  and  _192
REMARK   82  A    between atoms: _192  and  _193
REMARK   83  A    between atoms: _195  and  _197
REMARK   84  A    between atoms: _197  and  _198
REMARK   85  A    between atoms: _197  and  _200
REMARK   86  A    between atoms: _200  and  _201
REMARK   87  A    between atoms: _204  and  _206
REMARK   88  A    between atoms: _206  and  _207
REMARK   89  A    between atoms: _206  and  _209
REMARK   90  A    between atoms: _209  and  _210
REMARK   91  A    between atoms: _210  and  _211
REMARK   92  A    between atoms: _213  and  _215
REMARK   93  A    between atoms: _215  and  _216
REMARK   94  A    between atoms: _215  and  _218
REMARK   95  A    between atoms: _221  and  _223
REMARK   96  A    between atoms: _223  and  _224
REMARK   97  A    between atoms: _223  and  _226
REMARK   98  A    between atoms: _226  and  _227
REMARK   99  A    between atoms: _233  and  _235
REMARK  100  A    between atoms: _235  and  _236
REMARK  101  A    between atoms: _238  and  _240
REMARK  102  A    between atoms: _240  and  _241
REMARK  103  A    between atoms: _240  and  _243
REMARK  104  A    between atoms: _243  and  _244
REMARK  105  A    between atoms: _247  and  _249
REMARK  106  A    between atoms: _249  and  _250
REMARK  107  A    between atoms: _252  and  _254
REMARK  108  A    between atoms: _254  and  _255
REMARK  109  A    between atoms: _254  and  _257
REMARK  110  A    between atoms: _257  and  _258
REMARK  111  A    between atoms: _258  and  _259
REMARK  112  A    between atoms: _259  and  _260
REMARK  113  A    between atoms: _269  and  _271
REMARK  114  A    between atoms: _271  and  _272
REMARK  115  A    between atoms: _271  and  _274
REMARK  116  A    between atoms: _274  and  _275
REMARK  117  A    between atoms: _277  and  _279
REMARK  118  A    between atoms: _279  and  _280
REMARK  119  A    between atoms: _279  and  _282
REMARK  120  A    between atoms: _282  and  _283
REMARK  121  A    between atoms: _288  and  _289
REMARK  122  A    between atoms: _291  and  _293
REMARK  123  A    between atoms: _293  and  _294
REMARK  124  A    between atoms: _293  and  _296
REMARK  125  A    between atoms: _296  and  _297
REMARK  126  A    between atoms: _303  and  _305
REMARK  127  A    between atoms: _305  and  _306
REMARK  128  A    between atoms: _309  and  _311
REMARK  129  A    between atoms: _311  and  _312
REMARK  130  A    between atoms: _311  and  _314
REMARK  131  A    between atoms: _314  and  _315
REMARK  132  A    between atoms: _318  and  _320
REMARK  133  A    between atoms: _320  and  _321
REMARK  134  A    between atoms: _320  and  _323
REMARK  135  A    between atoms: _323  and  _324
REMARK  136  A    between atoms: _327  and  _329
REMARK  137  A    between atoms: _329  and  _330
REMARK  138  A    between atoms: _329  and  _332
REMARK  139  A    between atoms: _332  and  _333
REMARK  140  A    between atoms: _335  and  _337
REMARK  141  A    between atoms: _337  and  _338
REMARK  142  A    between atoms: _337  and  _340
REMARK  143  A    between atoms: _340  and  _341
REMARK  144  A    between atoms: _343  and  _345
REMARK  145  A    between atoms: _345  and  _346
REMARK  146  A    between atoms: _345  and  _348
REMARK  147  A    between atoms: _348  and  _349
REMARK  148  A    between atoms: _355  and  _357
REMARK  149  A    between atoms: _357  and  _358
REMARK  150  A    between atoms: _357  and  _360
REMARK  151  A    between atoms: _360  and  _361
REMARK  152  A    between atoms: _366  and  _367
REMARK  153  A    between atoms: _369  and  _371
REMARK  154  A    between atoms: _371  and  _372
REMARK  155  A    between atoms: _371  and  _374
REMARK  156  A    between atoms: _374  and  _375
REMARK  157  A    between atoms: _378  and  _380
REMARK  158  A    between atoms: _380  and  _381
REMARK  159  A    between atoms: _380  and  _383
REMARK  160  A    between atoms: _385  and  _387
REMARK  161  A    between atoms: _387  and  _388
REMARK  162  A    between atoms: _387  and  _390
REMARK  163  A    between atoms: _390  and  _391
REMARK  164  A    between atoms: _391  and  _392
REMARK  165  A    between atoms: _394  and  _396
REMARK  166  A    between atoms: _396  and  _397
REMARK  167  A    between atoms: _396  and  _399
REMARK  168  A    between atoms: _399  and  _400
REMARK  169  A    between atoms: _403  and  _405
REMARK  170  A    between atoms: _405  and  _406
REMARK  171  A    between atoms: _405  and  _408
REMARK  172  A    between atoms: _411  and  _413
REMARK  173  A    between atoms: _413  and  _414
REMARK  174  A    between atoms: _413  and  _416
REMARK  175  A    between atoms: _416  and  _417
REMARK  176  A    between atoms: _417  and  _418
REMARK  177  A    between atoms: _423  and  _425
REMARK  178  A    between atoms: _425  and  _426
REMARK  179  A    between atoms: _425  and  _428
REMARK  180  A    between atoms: _428  and  _429
REMARK  181  A    between atoms: _432  and  _434
REMARK  182  A    between atoms: _434  and  _435
REMARK  183  A    between atoms: _434  and  _437
REMARK  184  A    between atoms: _437  and  _438
REMARK  185  A    between atoms: _443  and  _445
REMARK  186  A    between atoms: _445  and  _446
REMARK  187  A    between atoms: _445  and  _448
REMARK  188  A    between atoms: _448  and  _449
REMARK  189  A    between atoms: _452  and  _454
REMARK  190  A    between atoms: _454  and  _455
REMARK  191  A    between atoms: _454  and  _457
REMARK  192  A    between atoms: _457  and  _458
REMARK  193  A    between atoms: _463  and  _464
REMARK  194  A    between atoms: _466  and  _468
REMARK  195  A    between atoms: _468  and  _469
REMARK  196  A    between atoms: _468  and  _471
REMARK  197  A    between atoms: _473  and  _475
REMARK  198  A    between atoms: _475  and  _476
REMARK  199  A    between atoms: _475  and  _478
REMARK  200  A    between atoms: _478  and  _479
REMARK  201  A    between atoms: _482  and  _484
REMARK  202  A    between atoms: _484  and  _485
REMARK  203  A    between atoms: _484  and  _487
REMARK  204  A    between atoms: _487  and  _488
REMARK  205  A    between atoms: _493  and  _495
REMARK  206  A    between atoms: _495  and  _496
REMARK  207  A    between atoms: _495  and  _498
REMARK  208  A    between atoms: _498  and  _499
REMARK  209  A    between atoms: _502  and  _504
REMARK  210  A    between atoms: _504  and  _505
REMARK  211  A    between atoms: _504  and  _507
REMARK  212  A    between atoms: _507  and  _508
REMARK  213  A    between atoms: _514  and  _516
REMARK  214  A    between atoms: _516  and  _517
REMARK  215  A    between atoms: _516  and  _519
REMARK  216  A    between atoms: _522  and  _524
REMARK  217  A    between atoms: _524  and  _525
REMARK  218  A    between atoms: _524  and  _527
REMARK  219  A    between atoms: _527  and  _528
REMARK  220  A    between atoms: _528  and  _529
REMARK  221  A    between atoms: _532  and  _534
REMARK  222  A    between atoms: _534  and  _535
REMARK  223  A    between atoms: _534  and  _537
REMARK  224  A    between atoms: _537  and  _538
REMARK  225  A    between atoms: _545  and  _546
REMARK  226  A    between atoms: _551  and  _553
REMARK  227  A    between atoms: _553  and  _554
REMARK  228  A    between atoms: _553  and  _556
REMARK  229  A    between atoms: _556  and  _557
REMARK  230  A    between atoms: _557  and  _558
REMARK  231  A    between atoms: _561  and  _563
REMARK  232  A    between atoms: _563  and  _564
REMARK  233  A    between atoms: _563  and  _566
REMARK  234  A    between atoms: _566  and  _567
REMARK  235  A    between atoms: _567  and  _568
REMARK  236  A    between atoms: _570  and  _572
REMARK  237  A    between atoms: _572  and  _573
REMARK  238  A    between atoms: _572  and  _575
REMARK  239  A    between atoms: _575  and  _576
REMARK  240  A    between atoms: _576  and  _577
REMARK  241  A    between atoms: _579  and  _581
REMARK  242  A    between atoms: _581  and  _582
REMARK  243  A    between atoms: _581  and  _584
REMARK  244  A    between atoms: _584  and  _585
REMARK  245  A    between atoms: _587  and  _589
REMARK  246  A    between atoms: _589  and  _590
REMARK  247  A    between atoms: _589  and  _592
REMARK  248  A    between atoms: _592  and  _593
REMARK  249  A    between atoms: _593  and  _594
REMARK  250  A    between atoms: _597  and  _599
REMARK  251  A    between atoms: _599  and  _600
REMARK  252  A    between atoms: _599  and  _602
REMARK  253  A    between atoms: _605  and  _607
REMARK  254  A    between atoms: _607  and  _608
REMARK  255  A    between atoms: _607  and  _610
REMARK  256  A    between atoms: _610  and  _611
REMARK  257  A    between atoms: _614  and  _616
REMARK  258  A    between atoms: _616  and  _617
REMARK  259  A    between atoms: _616  and  _619
REMARK  260  A    between atoms: _619  and  _620
REMARK                            x       y       z     vdW  Elec       q    Type
REMARK                         _______ _______ _______ _____ _____    ______ ____
ROOT
ATOM      1  O   HOH     1      17.470   6.799  -3.615  0.00  0.00    +0.000 OA
ENDROOT
TORSDOF 0
REMARK  Name = ../refined-set-2016/2w8y/2w8y_pocket.pdb
REMARK  260 active torsions:
REMARK  status: ('A' for Active; 'I' for Inactive)
REMARK    1  A    between atoms: _1  and  _3
REMARK    2  A    between atoms: _3  and  _4
REMARK    3  A    between atoms: _3  and  _6
REMARK    4  A    between atoms: _6  and  _7
REMARK    5  A    between atoms: _10  and  _12
REMARK    6  A    between atoms: _12  and  _13
REMARK    7  A    between atoms: _16  and  _18
REMARK    8  A    between atoms: _18  and  _19
REMARK    9  A    between atoms: _18  and  _21
REMARK   10  A    between atoms: _21  and  _22
REMARK   11  A    between atoms: _24  and  _26
REMARK   12  A    between atoms: _26  and  _27
REMARK   13  A    between atoms: _26  and  _29
REMARK   14  A    between atoms: _29  and  _30
REMARK   15  A    between atoms: _33  and  _35
REMARK   16  A    between atoms: _35  and  _36
REMARK   17  A    between atoms: _35  and  _38
REMARK   18  A    between atoms: _38  and  _39
REMARK   19  A    between atoms: _42  and  _44
REMARK   20  A    between atoms: _44  and  _45
REMARK   21  A    between atoms: _44  and  _47
REMARK   22  A    between atoms: _47  and  _48
REMARK   23  A    between atoms: _51  and  _53
REMARK   24  A    between atoms: _53  and  _54
REMARK   25  A    between atoms: _53  and  _56
REMARK   26  A    between atoms: _56  and  _57
REMARK   27  A    between atoms: _59  and  _61
REMARK   28  A    between atoms: _61  and  _62
REMARK   29  A    between atoms: _61  and  _64
REMARK   30  A    between atoms: _64  and  _65
REMARK   31  A    between atoms: _68  and  _70
REMARK   32  A    between atoms: _70  and  _71
REMARK   33  A    between atoms: _70  and  _73
REMARK   34  A    between atoms: _73  and  _74
REMARK   35  A    between atoms: _79  and  _81
REMARK   36  A    between atoms: _81  and  _82
REMARK   37  A    between atoms: _81  and  _84
REMARK   38  A    between atoms: _84  and  _85
REMARK   39  A    between atoms: _85  and  _86
REMARK   40  A    between atoms: _91  and  _93
REMARK   41  A    between atoms: _93  and  _94
REMARK   42  A    between atoms: _93  and  _96
REMARK   43  A    between atoms: _96  and  _97
REMARK   44  A    between atoms: _100  and  _102
REMARK   45  A    between atoms: _102  and  _103
REMARK   46  A    between atoms: _105  and  _107
REMARK   47  A    between atoms: _107  and  _108
REMARK   48  A    between atoms: _107  and  _110
REMARK   49  A    between atoms: _110  and  _111
REMARK   50  A    between atoms: _111  and  _112
REMARK   51  A    between atoms: _115  and  _117
REMARK   52  A    between atoms: _117  and  _118
REMARK   53  A    between atoms: _117  and  _120
REMARK   54  A    between atoms: _120  and  _121
REMARK   55  A    between atoms: _121  and  _122
REMARK   56  A    between atoms: _122  and  _123
REMARK   57  A    between atoms: _132  and  _134
REMARK   58  A    between atoms: _134  and  _135
REMARK   59  A    between atoms: _134  and  _137
REMARK   60  A    between atoms: _137  and  _138
REMARK   61  A    between atoms: _138  and  _139
REMARK   62  A    between atoms: _144  and  _146
REMARK   63  A    between atoms: _146  and  _147
REMARK   64  A    between atoms: _146  and  _149
REMARK   65  A    between atoms: _149  and  _150
REMARK   66  A    between atoms: _153  and  _155
REMARK   67  A    between atoms: _155  and  _156
REMARK   68  A    between atoms: _155  and  _158
REMARK   69  A    between atoms: _158  and  _159
REMARK   70  A    between atoms: _162  and  _164
REMARK   71  A    between atoms: _164  and  _165
REMARK   72  A    between atoms: _164  and  _167
REMARK   73  A    between atoms: _167  and  _168
REMARK   74  A    between atoms: _178  and  _180
REMARK   75  A    between atoms: _180  and  _181
REMARK   76  A    between atoms: _180  and  _183
REMARK   77  A    between atoms: _183  and  _184
REMARK   78  A    between atoms: _184  and  _185
REMARK   79  A    between atoms: _187  and  _189
REMARK   80  A    between atoms: _189  and  _190
REMARK   81  A    between atoms: _189  and  _192
REMARK   82  A    between atoms: _192  and  _193
REMARK   83  A    between atoms: _195  and  _197
REMARK   84  A    between atoms: _197  and  _198
REMARK   85  A    between atoms: _197  and  _200
REMARK   86  A    between atoms: _200  and  _201
REMARK   87  A    between atoms: _204  and  _206
REMARK   88  A    between atoms: _206  and  _207
REMARK   89  A    between atoms: _206  and  _209
REMARK   90  A    between atoms: _209  and  _210
REMARK   91  A    between atoms: _210  and  _211
REMARK   92  A    between atoms: _213  and  _215
REMARK   93  A    between atoms: _215  and  _216
REMARK   94  A    between atoms: _215  and  _218
REMARK   95  A    between atoms: _221  and  _223
REMARK   96  A    between atoms: _223  and  _224
REMARK   97  A    between atoms: _223  and  _226
REMARK   98  A    between atoms: _226  and  _227
REMARK   99  A    between atoms: _233  and  _235
REMARK  100  A    between atoms: _235  and  _236
REMARK  101  A    between atoms: _238  and  _240
REMARK  102  A    between atoms: _240  and  _241
REMARK  103  A    between atoms: _240  and  _243
REMARK  104  A    between atoms: _243  and  _244
REMARK  105  A    between atoms: _247  and  _249
REMARK  106  A    between atoms: _249  and  _250
REMARK  107  A    between atoms: _252  and  _254
REMARK  108  A    between atoms: _254  and  _255
REMARK  109  A    between atoms: _254  and  _257
REMARK  110  A    between atoms: _257  and  _258
REMARK  111  A    between atoms: _258  and  _259
REMARK  112  A    between atoms: _259  and  _260
REMARK  113  A    between atoms: _269  and  _271
REMARK  114  A    between atoms: _271  and  _272
REMARK  115  A    between atoms: _271  and  _274
REMARK  116  A    between atoms: _274  and  _275
REMARK  117  A    between atoms: _277  and  _279
REMARK  118  A    between atoms: _279  and  _280
REMARK  119  A    between atoms: _279  and  _282
REMARK  120  A    between atoms: _282  and  _283
REMARK  121  A    between atoms: _288  and  _289
REMARK  122  A    between atoms: _291  and  _293
REMARK  123  A    between atoms: _293  and  _294
REMARK  124  A    between atoms: _293  and  _296
REMARK  125  A    between atoms: _296  and  _297
REMARK  126  A    between atoms: _303  and  _305
REMARK  127  A    between atoms: _305  and  _306
REMARK  128  A    between atoms: _309  and  _311
REMARK  129  A    between atoms: _311  and  _312
REMARK  130  A    between atoms: _311  and  _314
REMARK  131  A    between atoms: _314  and  _315
REMARK  132  A    between atoms: _318  and  _320
REMARK  133  A    between atoms: _320  and  _321
REMARK  134  A    between atoms: _320  and  _323
REMARK  135  A    between atoms: _323  and  _324
REMARK  136  A    between atoms: _327  and  _329
REMARK  137  A    between atoms: _329  and  _330
REMARK  138  A    between atoms: _329  and  _332
REMARK  139  A    between atoms: _332  and  _333
REMARK  140  A    between atoms: _335  and  _337
REMARK  141  A    between atoms: _337  and  _338
REMARK  142  A    between atoms: _337  and  _340
REMARK  143  A    between atoms: _340  and  _341
REMARK  144  A    between atoms: _343  and  _345
REMARK  145  A    between atoms: _345  and  _346
REMARK  146  A    between atoms: _345  and  _348
REMARK  147  A    between atoms: _348  and  _349
REMARK  148  A    between atoms: _355  and  _357
REMARK  149  A    between atoms: _357  and  _358
REMARK  150  A    between atoms: _357  and  _360
REMARK  151  A    between atoms: _360  and  _361
REMARK  152  A    between atoms: _366  and  _367
REMARK  153  A    between atoms: _369  and  _371
REMARK  154  A    between atoms: _371  and  _372
REMARK  155  A    between atoms: _371  and  _374
REMARK  156  A    between atoms: _374  and  _375
REMARK  157  A    between atoms: _378  and  _380
REMARK  158  A    between atoms: _380  and  _381
REMARK  159  A    between atoms: _380  and  _383
REMARK  160  A    between atoms: _385  and  _387
REMARK  161  A    between atoms: _387  and  _388
REMARK  162  A    between atoms: _387  and  _390
REMARK  163  A    between atoms: _390  and  _391
REMARK  164  A    between atoms: _391  and  _392
REMARK  165  A    between atoms: _394  and  _396
REMARK  166  A    between atoms: _396  and  _397
REMARK  167  A    between atoms: _396  and  _399
REMARK  168  A    between atoms: _399  and  _400
REMARK  169  A    between atoms: _403  and  _405
REMARK  170  A    between atoms: _405  and  _406
REMARK  171  A    between atoms: _405  and  _408
REMARK  172  A    between atoms: _411  and  _413
REMARK  173  A    between atoms: _413  and  _414
REMARK  174  A    between atoms: _413  and  _416
REMARK  175  A    between atoms: _416  and  _417
REMARK  176  A    between atoms: _417  and  _418
REMARK  177  A    between atoms: _423  and  _425
REMARK  178  A    between atoms: _425  and  _426
REMARK  179  A    between atoms: _425  and  _428
REMARK  180  A    between atoms: _428  and  _429
REMARK  181  A    between atoms: _432  and  _434
REMARK  182  A    between atoms: _434  and  _435
REMARK  183  A    between atoms: _434  and  _437
REMARK  184  A    between atoms: _437  and  _438
REMARK  185  A    between atoms: _443  and  _445
REMARK  186  A    between atoms: _445  and  _446
REMARK  187  A    between atoms: _445  and  _448
REMARK  188  A    between atoms: _448  and  _449
REMARK  189  A    between atoms: _452  and  _454
REMARK  190  A    between atoms: _454  and  _455
REMARK  191  A    between atoms: _454  and  _457
REMARK  192  A    between atoms: _457  and  _458
REMARK  193  A    between atoms: _463  and  _464
REMARK  194  A    between atoms: _466  and  _468
REMARK  195  A    between atoms: _468  and  _469
REMARK  196  A    between atoms: _468  and  _471
REMARK  197  A    between atoms: _473  and  _475
REMARK  198  A    between atoms: _475  and  _476
REMARK  199  A    between atoms: _475  and  _478
REMARK  200  A    between atoms: _478  and  _479
REMARK  201  A    between atoms: _482  and  _484
REMARK  202  A    between atoms: _484  and  _485
REMARK  203  A    between atoms: _484  and  _487
REMARK  204  A    between atoms: _487  and  _488
REMARK  205  A    between atoms: _493  and  _495
REMARK  206  A    between atoms: _495  and  _496
REMARK  207  A    between atoms: _495  and  _498
REMARK  208  A    between atoms: _498  and  _499
REMARK  209  A    between atoms: _502  and  _504
REMARK  210  A    between atoms: _504  and  _505
REMARK  211  A    between atoms: _504  and  _507
REMARK  212  A    between atoms: _507  and  _508
REMARK  213  A    between atoms: _514  and  _516
REMARK  214  A    between atoms: _516  and  _517
REMARK  215  A    between atoms: _516  and  _519
REMARK  216  A    between atoms: _522  and  _524
REMARK  217  A    between atoms: _524  and  _525
REMARK  218  A    between atoms: _524  and  _527
REMARK  219  A    between atoms: _527  and  _528
REMARK  220  A    between atoms: _528  and  _529
REMARK  221  A    between atoms: _532  and  _534
REMARK  222  A    between atoms: _534  and  _535
REMARK  223  A    between atoms: _534  and  _537
REMARK  224  A    between atoms: _537  and  _538
REMARK  225  A    between atoms: _545  and  _546
REMARK  226  A    between atoms: _551  and  _553
REMARK  227  A    between atoms: _553  and  _554
REMARK  228  A    between atoms: _553  and  _556
REMARK  229  A    between atoms: _556  and  _557
REMARK  230  A    between atoms: _557  and  _558
REMARK  231  A    between atoms: _561  and  _563
REMARK  232  A    between atoms: _563  and  _564
REMARK  233  A    between atoms: _563  and  _566
REMARK  234  A    between atoms: _566  and  _567
REMARK  235  A    between atoms: _567  and  _568
REMARK  236  A    between atoms: _570  and  _572
REMARK  237  A    between atoms: _572  and  _573
REMARK  238  A    between atoms: _572  and  _575
REMARK  239  A    between atoms: _575  and  _576
REMARK  240  A    between atoms: _576  and  _577
REMARK  241  A    between atoms: _579  and  _581
REMARK  242  A    between atoms: _581  and  _582
REMARK  243  A    between atoms: _581  and  _584
REMARK  244  A    between atoms: _584  and  _585
REMARK  245  A    between atoms: _587  and  _589
REMARK  246  A    between atoms: _589  and  _590
REMARK  247  A    between atoms: _589  and  _592
REMARK  248  A    between atoms: _592  and  _593
REMARK  249  A    between atoms: _593  and  _594
REMARK  250  A    between atoms: _597  and  _599
REMARK  251  A    between atoms: _599  and  _600
REMARK  252  A    between atoms: _599  and  _602
REMARK  253  A    between atoms: _605  and  _607
REMARK  254  A    between atoms: _607  and  _608
REMARK  255  A    between atoms: _607  and  _610
REMARK  256  A    between atoms: _610  and  _611
REMARK  257  A    between atoms: _614  and  _616
REMARK  258  A    between atoms: _616  and  _617
REMARK  259  A    between atoms: _616  and  _619
REMARK  260  A    between atoms: _619  and  _620
REMARK                            x       y       z     vdW  Elec       q    Type
REMARK                         _______ _______ _______ _____ _____    ______ ____
ROOT
ATOM      1  O   HOH     1      12.799  10.235  -1.092  0.00  0.00    +0.000 OA
ENDROOT
TORSDOF 0
REMARK  Name = ../refined-set-2016/2w8y/2w8y_pocket.pdb
REMARK  260 active torsions:
REMARK  status: ('A' for Active; 'I' for Inactive)
REMARK    1  A    between atoms: _1  and  _3
REMARK    2  A    between atoms: _3  and  _4
REMARK    3  A    between atoms: _3  and  _6
REMARK    4  A    between atoms: _6  and  _7
REMARK    5  A    between atoms: _10  and  _12
REMARK    6  A    between atoms: _12  and  _13
REMARK    7  A    between atoms: _16  and  _18
REMARK    8  A    between atoms: _18  and  _19
REMARK    9  A    between atoms: _18  and  _21
REMARK   10  A    between atoms: _21  and  _22
REMARK   11  A    between atoms: _24  and  _26
REMARK   12  A    between atoms: _26  and  _27
REMARK   13  A    between atoms: _26  and  _29
REMARK   14  A    between atoms: _29  and  _30
REMARK   15  A    between atoms: _33  and  _35
REMARK   16  A    between atoms: _35  and  _36
REMARK   17  A    between atoms: _35  and  _38
REMARK   18  A    between atoms: _38  and  _39
REMARK   19  A    between atoms: _42  and  _44
REMARK   20  A    between atoms: _44  and  _45
REMARK   21  A    between atoms: _44  and  _47
REMARK   22  A    between atoms: _47  and  _48
REMARK   23  A    between atoms: _51  and  _53
REMARK   24  A    between atoms: _53  and  _54
REMARK   25  A    between atoms: _53  and  _56
REMARK   26  A    between atoms: _56  and  _57
REMARK   27  A    between atoms: _59  and  _61
REMARK   28  A    between atoms: _61  and  _62
REMARK   29  A    between atoms: _61  and  _64
REMARK   30  A    between atoms: _64  and  _65
REMARK   31  A    between atoms: _68  and  _70
REMARK   32  A    between atoms: _70  and  _71
REMARK   33  A    between atoms: _70  and  _73
REMARK   34  A    between atoms: _73  and  _74
REMARK   35  A    between atoms: _79  and  _81
REMARK   36  A    between atoms: _81  and  _82
REMARK   37  A    between atoms: _81  and  _84
REMARK   38  A    between atoms: _84  and  _85
REMARK   39  A    between atoms: _85  and  _86
REMARK   40  A    between atoms: _91  and  _93
REMARK   41  A    between atoms: _93  and  _94
REMARK   42  A    between atoms: _93  and  _96
REMARK   43  A    between atoms: _96  and  _97
REMARK   44  A    between atoms: _100  and  _102
REMARK   45  A    between atoms: _102  and  _103
REMARK   46  A    between atoms: _105  and  _107
REMARK   47  A    between atoms: _107  and  _108
REMARK   48  A    between atoms: _107  and  _110
REMARK   49  A    between atoms: _110  and  _111
REMARK   50  A    between atoms: _111  and  _112
REMARK   51  A    between atoms: _115  and  _117
REMARK   52  A    between atoms: _117  and  _118
REMARK   53  A    between atoms: _117  and  _120
REMARK   54  A    between atoms: _120  and  _121
REMARK   55  A    between atoms: _121  and  _122
REMARK   56  A    between atoms: _122  and  _123
REMARK   57  A    between atoms: _132  and  _134
REMARK   58  A    between atoms: _134  and  _135
REMARK   59  A    between atoms: _134  and  _137
REMARK   60  A    between atoms: _137  and  _138
REMARK   61  A    between atoms: _138  and  _139
REMARK   62  A    between atoms: _144  and  _146
REMARK   63  A    between atoms: _146  and  _147
REMARK   64  A    between atoms: _146  and  _149
REMARK   65  A    between atoms: _149  and  _150
REMARK   66  A    between atoms: _153  and  _155
REMARK   67  A    between atoms: _155  and  _156
REMARK   68  A    between atoms: _155  and  _158
REMARK   69  A    between atoms: _158  and  _159
REMARK   70  A    between atoms: _162  and  _164
REMARK   71  A    between atoms: _164  and  _165
REMARK   72  A    between atoms: _164  and  _167
REMARK   73  A    between atoms: _167  and  _168
REMARK   74  A    between atoms: _178  and  _180
REMARK   75  A    between atoms: _180  and  _181
REMARK   76  A    between atoms: _180  and  _183
REMARK   77  A    between atoms: _183  and  _184
REMARK   78  A    between atoms: _184  and  _185
REMARK   79  A    between atoms: _187  and  _189
REMARK   80  A    between atoms: _189  and  _190
REMARK   81  A    between atoms: _189  and  _192
REMARK   82  A    between atoms: _192  and  _193
REMARK   83  A    between atoms: _195  and  _197
REMARK   84  A    between atoms: _197  and  _198
REMARK   85  A    between atoms: _197  and  _200
REMARK   86  A    between atoms: _200  and  _201
REMARK   87  A    between atoms: _204  and  _206
REMARK   88  A    between atoms: _206  and  _207
REMARK   89  A    between atoms: _206  and  _209
REMARK   90  A    between atoms: _209  and  _210
REMARK   91  A    between atoms: _210  and  _211
REMARK   92  A    between atoms: _213  and  _215
REMARK   93  A    between atoms: _215  and  _216
REMARK   94  A    between atoms: _215  and  _218
REMARK   95  A    between atoms: _221  and  _223
REMARK   96  A    between atoms: _223  and  _224
REMARK   97  A    between atoms: _223  and  _226
REMARK   98  A    between atoms: _226  and  _227
REMARK   99  A    between atoms: _233  and  _235
REMARK  100  A    between atoms: _235  and  _236
REMARK  101  A    between atoms: _238  and  _240
REMARK  102  A    between atoms: _240  and  _241
REMARK  103  A    between atoms: _240  and  _243
REMARK  104  A    between atoms: _243  and  _244
REMARK  105  A    between atoms: _247  and  _249
REMARK  106  A    between atoms: _249  and  _250
REMARK  107  A    between atoms: _252  and  _254
REMARK  108  A    between atoms: _254  and  _255
REMARK  109  A    between atoms: _254  and  _257
REMARK  110  A    between atoms: _257  and  _258
REMARK  111  A    between atoms: _258  and  _259
REMARK  112  A    between atoms: _259  and  _260
REMARK  113  A    between atoms: _269  and  _271
REMARK  114  A    between atoms: _271  and  _272
REMARK  115  A    between atoms: _271  and  _274
REMARK  116  A    between atoms: _274  and  _275
REMARK  117  A    between atoms: _277  and  _279
REMARK  118  A    between atoms: _279  and  _280
REMARK  119  A    between atoms: _279  and  _282
REMARK  120  A    between atoms: _282  and  _283
REMARK  121  A    between atoms: _288  and  _289
REMARK  122  A    between atoms: _291  and  _293
REMARK  123  A    between atoms: _293  and  _294
REMARK  124  A    between atoms: _293  and  _296
REMARK  125  A    between atoms: _296  and  _297
REMARK  126  A    between atoms: _303  and  _305
REMARK  127  A    between atoms: _305  and  _306
REMARK  128  A    between atoms: _309  and  _311
REMARK  129  A    between atoms: _311  and  _312
REMARK  130  A    between atoms: _311  and  _314
REMARK  131  A    between atoms: _314  and  _315
REMARK  132  A    between atoms: _318  and  _320
REMARK  133  A    between atoms: _320  and  _321
REMARK  134  A    between atoms: _320  and  _323
REMARK  135  A    between atoms: _323  and  _324
REMARK  136  A    between atoms: _327  and  _329
REMARK  137  A    between atoms: _329  and  _330
REMARK  138  A    between atoms: _329  and  _332
REMARK  139  A    between atoms: _332  and  _333
REMARK  140  A    between atoms: _335  and  _337
REMARK  141  A    between atoms: _337  and  _338
REMARK  142  A    between atoms: _337  and  _340
REMARK  143  A    between atoms: _340  and  _341
REMARK  144  A    between atoms: _343  and  _345
REMARK  145  A    between atoms: _345  and  _346
REMARK  146  A    between atoms: _345  and  _348
REMARK  147  A    between atoms: _348  and  _349
REMARK  148  A    between atoms: _355  and  _357
REMARK  149  A    between atoms: _357  and  _358
REMARK  150  A    between atoms: _357  and  _360
REMARK  151  A    between atoms: _360  and  _361
REMARK  152  A    between atoms: _366  and  _367
REMARK  153  A    between atoms: _369  and  _371
REMARK  154  A    between atoms: _371  and  _372
REMARK  155  A    between atoms: _371  and  _374
REMARK  156  A    between atoms: _374  and  _375
REMARK  157  A    between atoms: _378  and  _380
REMARK  158  A    between atoms: _380  and  _381
REMARK  159  A    between atoms: _380  and  _383
REMARK  160  A    between atoms: _385  and  _387
REMARK  161  A    between atoms: _387  and  _388
REMARK  162  A    between atoms: _387  and  _390
REMARK  163  A    between atoms: _390  and  _391
REMARK  164  A    between atoms: _391  and  _392
REMARK  165  A    between atoms: _394  and  _396
REMARK  166  A    between atoms: _396  and  _397
REMARK  167  A    between atoms: _396  and  _399
REMARK  168  A    between atoms: _399  and  _400
REMARK  169  A    between atoms: _403  and  _405
REMARK  170  A    between atoms: _405  and  _406
REMARK  171  A    between atoms: _405  and  _408
REMARK  172  A    between atoms: _411  and  _413
REMARK  173  A    between atoms: _413  and  _414
REMARK  174  A    between atoms: _413  and  _416
REMARK  175  A    between atoms: _416  and  _417
REMARK  176  A    between atoms: _417  and  _418
REMARK  177  A    between atoms: _423  and  _425
REMARK  178  A    between atoms: _425  and  _426
REMARK  179  A    between atoms: _425  and  _428
REMARK  180  A    between atoms: _428  and  _429
REMARK  181  A    between atoms: _432  and  _434
REMARK  182  A    between atoms: _434  and  _435
REMARK  183  A    between atoms: _434  and  _437
REMARK  184  A    between atoms: _437  and  _438
REMARK  185  A    between atoms: _443  and  _445
REMARK  186  A    between atoms: _445  and  _446
REMARK  187  A    between atoms: _445  and  _448
REMARK  188  A    between atoms: _448  and  _449
REMARK  189  A    between atoms: _452  and  _454
REMARK  190  A    between atoms: _454  and  _455
REMARK  191  A    between atoms: _454  and  _457
REMARK  192  A    between atoms: _457  and  _458
REMARK  193  A    between atoms: _463  and  _464
REMARK  194  A    between atoms: _466  and  _468
REMARK  195  A    between atoms: _468  and  _469
REMARK  196  A    between atoms: _468  and  _471
REMARK  197  A    between atoms: _473  and  _475
REMARK  198  A    between atoms: _475  and  _476
REMARK  199  A    between atoms: _475  and  _478
REMARK  200  A    between atoms: _478  and  _479
REMARK  201  A    between atoms: _482  and  _484
REMARK  202  A    between atoms: _484  and  _485
REMARK  203  A    between atoms: _484  and  _487
REMARK  204  A    between atoms: _487  and  _488
REMARK  205  A    between atoms: _493  and  _495
REMARK  206  A    between atoms: _495  and  _496
REMARK  207  A    between atoms: _495  and  _498
REMARK  208  A    between atoms: _498  and  _499
REMARK  209  A    between atoms: _502  and  _504
REMARK  210  A    between atoms: _504  and  _505
REMARK  211  A    between atoms: _504  and  _507
REMARK  212  A    between atoms: _507  and  _508
REMARK  213  A    between atoms: _514  and  _516
REMARK  214  A    between atoms: _516  and  _517
REMARK  215  A    between atoms: _516  and  _519
REMARK  216  A    between atoms: _522  and  _524
REMARK  217  A    between atoms: _524  and  _525
REMARK  218  A    between atoms: _524  and  _527
REMARK  219  A    between atoms: _527  and  _528
REMARK  220  A    between atoms: _528  and  _529
REMARK  221  A    between atoms: _532  and  _534
REMARK  222  A    between atoms: _534  and  _535
REMARK  223  A    between atoms: _534  and  _537
REMARK  224  A    between atoms: _537  and  _538
REMARK  225  A    between atoms: _545  and  _546
REMARK  226  A    between atoms: _551  and  _553
REMARK  227  A    between atoms: _553  and  _554
REMARK  228  A    between atoms: _553  and  _556
REMARK  229  A    between atoms: _556  and  _557
REMARK  230  A    between atoms: _557  and  _558
REMARK  231  A    between atoms: _561  and  _563
REMARK  232  A    between atoms: _563  and  _564
REMARK  233  A    between atoms: _563  and  _566
REMARK  234  A    between atoms: _566  and  _567
REMARK  235  A    between atoms: _567  and  _568
REMARK  236  A    between atoms: _570  and  _572
REMARK  237  A    between atoms: _572  and  _573
REMARK  238  A    between atoms: _572  and  _575
REMARK  239  A    between atoms: _575  and  _576
REMARK  240  A    between atoms: _576  and  _577
REMARK  241  A    between atoms: _579  and  _581
REMARK  242  A    between atoms: _581  and  _582
REMARK  243  A    between atoms: _581  and  _584
REMARK  244  A    between atoms: _584  and  _585
REMARK  245  A    between atoms: _587  and  _589
REMARK  246  A    between atoms: _589  and  _590
REMARK  247  A    between atoms: _589  and  _592
REMARK  248  A    between atoms: _592  and  _593
REMARK  249  A    between atoms: _593  and  _594
REMARK  250  A    between atoms: _597  and  _599
REMARK  251  A    between atoms: _599  and  _600
REMARK  252  A    between atoms: _599  and  _602
REMARK  253  A    between atoms: _605  and  _607
REMARK  254  A    between atoms: _607  and  _608
REMARK  255  A    between atoms: _607  and  _610
REMARK  256  A    between atoms: _610  and  _611
REMARK  257  A    between atoms: _614  and  _616
REMARK  258  A    between atoms: _616  and  _617
REMARK  259  A    between atoms: _616  and  _619
REMARK  260  A    between atoms: _619  and  _620
REMARK                            x       y       z     vdW  Elec       q    Type
REMARK                         _______ _______ _______ _____ _____    ______ ____
ROOT
ATOM      1  O   HOH     1      15.111   7.823  19.019  0.00  0.00    +0.000 OA
ENDROOT
TORSDOF 0
REMARK  Name = ../refined-set-2016/2w8y/2w8y_pocket.pdb
REMARK  260 active torsions:
REMARK  status: ('A' for Active; 'I' for Inactive)
REMARK    1  A    between atoms: _1  and  _3
REMARK    2  A    between atoms: _3  and  _4
REMARK    3  A    between atoms: _3  and  _6
REMARK    4  A    between atoms: _6  and  _7
REMARK    5  A    between atoms: _10  and  _12
REMARK    6  A    between atoms: _12  and  _13
REMARK    7  A    between atoms: _16  and  _18
REMARK    8  A    between atoms: _18  and  _19
REMARK    9  A    between atoms: _18  and  _21
REMARK   10  A    between atoms: _21  and  _22
REMARK   11  A    between atoms: _24  and  _26
REMARK   12  A    between atoms: _26  and  _27
REMARK   13  A    between atoms: _26  and  _29
REMARK   14  A    between atoms: _29  and  _30
REMARK   15  A    between atoms: _33  and  _35
REMARK   16  A    between atoms: _35  and  _36
REMARK   17  A    between atoms: _35  and  _38
REMARK   18  A    between atoms: _38  and  _39
REMARK   19  A    between atoms: _42  and  _44
REMARK   20  A    between atoms: _44  and  _45
REMARK   21  A    between atoms: _44  and  _47
REMARK   22  A    between atoms: _47  and  _48
REMARK   23  A    between atoms: _51  and  _53
REMARK   24  A    between atoms: _53  and  _54
REMARK   25  A    between atoms: _53  and  _56
REMARK   26  A    between atoms: _56  and  _57
REMARK   27  A    between atoms: _59  and  _61
REMARK   28  A    between atoms: _61  and  _62
REMARK   29  A    between atoms: _61  and  _64
REMARK   30  A    between atoms: _64  and  _65
REMARK   31  A    between atoms: _68  and  _70
REMARK   32  A    between atoms: _70  and  _71
REMARK   33  A    between atoms: _70  and  _73
REMARK   34  A    between atoms: _73  and  _74
REMARK   35  A    between atoms: _79  and  _81
REMARK   36  A    between atoms: _81  and  _82
REMARK   37  A    between atoms: _81  and  _84
REMARK   38  A    between atoms: _84  and  _85
REMARK   39  A    between atoms: _85  and  _86
REMARK   40  A    between atoms: _91  and  _93
REMARK   41  A    between atoms: _93  and  _94
REMARK   42  A    between atoms: _93  and  _96
REMARK   43  A    between atoms: _96  and  _97
REMARK   44  A    between atoms: _100  and  _102
REMARK   45  A    between atoms: _102  and  _103
REMARK   46  A    between atoms: _105  and  _107
REMARK   47  A    between atoms: _107  and  _108
REMARK   48  A    between atoms: _107  and  _110
REMARK   49  A    between atoms: _110  and  _111
REMARK   50  A    between atoms: _111  and  _112
REMARK   51  A    between atoms: _115  and  _117
REMARK   52  A    between atoms: _117  and  _118
REMARK   53  A    between atoms: _117  and  _120
REMARK   54  A    between atoms: _120  and  _121
REMARK   55  A    between atoms: _121  and  _122
REMARK   56  A    between atoms: _122  and  _123
REMARK   57  A    between atoms: _132  and  _134
REMARK   58  A    between atoms: _134  and  _135
REMARK   59  A    between atoms: _134  and  _137
REMARK   60  A    between atoms: _137  and  _138
REMARK   61  A    between atoms: _138  and  _139
REMARK   62  A    between atoms: _144  and  _146
REMARK   63  A    between atoms: _146  and  _147
REMARK   64  A    between atoms: _146  and  _149
REMARK   65  A    between atoms: _149  and  _150
REMARK   66  A    between atoms: _153  and  _155
REMARK   67  A    between atoms: _155  and  _156
REMARK   68  A    between atoms: _155  and  _158
REMARK   69  A    between atoms: _158  and  _159
REMARK   70  A    between atoms: _162  and  _164
REMARK   71  A    between atoms: _164  and  _165
REMARK   72  A    between atoms: _164  and  _167
REMARK   73  A    between atoms: _167  and  _168
REMARK   74  A    between atoms: _178  and  _180
REMARK   75  A    between atoms: _180  and  _181
REMARK   76  A    between atoms: _180  and  _183
REMARK   77  A    between atoms: _183  and  _184
REMARK   78  A    between atoms: _184  and  _185
REMARK   79  A    between atoms: _187  and  _189
REMARK   80  A    between atoms: _189  and  _190
REMARK   81  A    between atoms: _189  and  _192
REMARK   82  A    between atoms: _192  and  _193
REMARK   83  A    between atoms: _195  and  _197
REMARK   84  A    between atoms: _197  and  _198
REMARK   85  A    between atoms: _197  and  _200
REMARK   86  A    between atoms: _200  and  _201
REMARK   87  A    between atoms: _204  and  _206
REMARK   88  A    between atoms: _206  and  _207
REMARK   89  A    between atoms: _206  and  _209
REMARK   90  A    between atoms: _209  and  _210
REMARK   91  A    between atoms: _210  and  _211
REMARK   92  A    between atoms: _213  and  _215
REMARK   93  A    between atoms: _215  and  _216
REMARK   94  A    between atoms: _215  and  _218
REMARK   95  A    between atoms: _221  and  _223
REMARK   96  A    between atoms: _223  and  _224
REMARK   97  A    between atoms: _223  and  _226
REMARK   98  A    between atoms: _226  and  _227
REMARK   99  A    between atoms: _233  and  _235
REMARK  100  A    between atoms: _235  and  _236
REMARK  101  A    between atoms: _238  and  _240
REMARK  102  A    between atoms: _240  and  _241
REMARK  103  A    between atoms: _240  and  _243
REMARK  104  A    between atoms: _243  and  _244
REMARK  105  A    between atoms: _247  and  _249
REMARK  106  A    between atoms: _249  and  _250
REMARK  107  A    between atoms: _252  and  _254
REMARK  108  A    between atoms: _254  and  _255
REMARK  109  A    between atoms: _254  and  _257
REMARK  110  A    between atoms: _257  and  _258
REMARK  111  A    between atoms: _258  and  _259
REMARK  112  A    between atoms: _259  and  _260
REMARK  113  A    between atoms: _269  and  _271
REMARK  114  A    between atoms: _271  and  _272
REMARK  115  A    between atoms: _271  and  _274
REMARK  116  A    between atoms: _274  and  _275
REMARK  117  A    between atoms: _277  and  _279
REMARK  118  A    between atoms: _279  and  _280
REMARK  119  A    between atoms: _279  and  _282
REMARK  120  A    between atoms: _282  and  _283
REMARK  121  A    between atoms: _288  and  _289
REMARK  122  A    between atoms: _291  and  _293
REMARK  123  A    between atoms: _293  and  _294
REMARK  124  A    between atoms: _293  and  _296
REMARK  125  A    between atoms: _296  and  _297
REMARK  126  A    between atoms: _303  and  _305
REMARK  127  A    between atoms: _305  and  _306
REMARK  128  A    between atoms: _309  and  _311
REMARK  129  A    between atoms: _311  and  _312
REMARK  130  A    between atoms: _311  and  _314
REMARK  131  A    between atoms: _314  and  _315
REMARK  132  A    between atoms: _318  and  _320
REMARK  133  A    between atoms: _320  and  _321
REMARK  134  A    between atoms: _320  and  _323
REMARK  135  A    between atoms: _323  and  _324
REMARK  136  A    between atoms: _327  and  _329
REMARK  137  A    between atoms: _329  and  _330
REMARK  138  A    between atoms: _329  and  _332
REMARK  139  A    between atoms: _332  and  _333
REMARK  140  A    between atoms: _335  and  _337
REMARK  141  A    between atoms: _337  and  _338
REMARK  142  A    between atoms: _337  and  _340
REMARK  143  A    between atoms: _340  and  _341
REMARK  144  A    between atoms: _343  and  _345
REMARK  145  A    between atoms: _345  and  _346
REMARK  146  A    between atoms: _345  and  _348
REMARK  147  A    between atoms: _348  and  _349
REMARK  148  A    between atoms: _355  and  _357
REMARK  149  A    between atoms: _357  and  _358
REMARK  150  A    between atoms: _357  and  _360
REMARK  151  A    between atoms: _360  and  _361
REMARK  152  A    between atoms: _366  and  _367
REMARK  153  A    between atoms: _369  and  _371
REMARK  154  A    between atoms: _371  and  _372
REMARK  155  A    between atoms: _371  and  _374
REMARK  156  A    between atoms: _374  and  _375
REMARK  157  A    between atoms: _378  and  _380
REMARK  158  A    between atoms: _380  and  _381
REMARK  159  A    between atoms: _380  and  _383
REMARK  160  A    between atoms: _385  and  _387
REMARK  161  A    between atoms: _387  and  _388
REMARK  162  A    between atoms: _387  and  _390
REMARK  163  A    between atoms: _390  and  _391
REMARK  164  A    between atoms: _391  and  _392
REMARK  165  A    between atoms: _394  and  _396
REMARK  166  A    between atoms: _396  and  _397
REMARK  167  A    between atoms: _396  and  _399
REMARK  168  A    between atoms: _399  and  _400
REMARK  169  A    between atoms: _403  and  _405
REMARK  170  A    between atoms: _405  and  _406
REMARK  171  A    between atoms: _405  and  _408
REMARK  172  A    between atoms: _411  and  _413
REMARK  173  A    between atoms: _413  and  _414
REMARK  174  A    between atoms: _413  and  _416
REMARK  175  A    between atoms: _416  and  _417
REMARK  176  A    between atoms: _417  and  _418
REMARK  177  A    between atoms: _423  and  _425
REMARK  178  A    between atoms: _425  and  _426
REMARK  179  A    between atoms: _425  and  _428
REMARK  180  A    between atoms: _428  and  _429
REMARK  181  A    between atoms: _432  and  _434
REMARK  182  A    between atoms: _434  and  _435
REMARK  183  A    between atoms: _434  and  _437
REMARK  184  A    between atoms: _437  and  _438
REMARK  185  A    between atoms: _443  and  _445
REMARK  186  A    between atoms: _445  and  _446
REMARK  187  A    between atoms: _445  and  _448
REMARK  188  A    between atoms: _448  and  _449
REMARK  189  A    between atoms: _452  and  _454
REMARK  190  A    between atoms: _454  and  _455
REMARK  191  A    between atoms: _454  and  _457
REMARK  192  A    between atoms: _457  and  _458
REMARK  193  A    between atoms: _463  and  _464
REMARK  194  A    between atoms: _466  and  _468
REMARK  195  A    between atoms: _468  and  _469
REMARK  196  A    between atoms: _468  and  _471
REMARK  197  A    between atoms: _473  and  _475
REMARK  198  A    between atoms: _475  and  _476
REMARK  199  A    between atoms: _475  and  _478
REMARK  200  A    between atoms: _478  and  _479
REMARK  201  A    between atoms: _482  and  _484
REMARK  202  A    between atoms: _484  and  _485
REMARK  203  A    between atoms: _484  and  _487
REMARK  204  A    between atoms: _487  and  _488
REMARK  205  A    between atoms: _493  and  _495
REMARK  206  A    between atoms: _495  and  _496
REMARK  207  A    between atoms: _495  and  _498
REMARK  208  A    between atoms: _498  and  _499
REMARK  209  A    between atoms: _502  and  _504
REMARK  210  A    between atoms: _504  and  _505
REMARK  211  A    between atoms: _504  and  _507
REMARK  212  A    between atoms: _507  and  _508
REMARK  213  A    between atoms: _514  and  _516
REMARK  214  A    between atoms: _516  and  _517
REMARK  215  A    between atoms: _516  and  _519
REMARK  216  A    between atoms: _522  and  _524
REMARK  217  A    between atoms: _524  and  _525
REMARK  218  A    between atoms: _524  and  _527
REMARK  219  A    between atoms: _527  and  _528
REMARK  220  A    between atoms: _528  and  _529
REMARK  221  A    between atoms: _532  and  _534
REMARK  222  A    between atoms: _534  and  _535
REMARK  223  A    between atoms: _534  and  _537
REMARK  224  A    between atoms: _537  and  _538
REMARK  225  A    between atoms: _545  and  _546
REMARK  226  A    between atoms: _551  and  _553
REMARK  227  A    between atoms: _553  and  _554
REMARK  228  A    between atoms: _553  and  _556
REMARK  229  A    between atoms: _556  and  _557
REMARK  230  A    between atoms: _557  and  _558
REMARK  231  A    between atoms: _561  and  _563
REMARK  232  A    between atoms: _563  and  _564
REMARK  233  A    between atoms: _563  and  _566
REMARK  234  A    between atoms: _566  and  _567
REMARK  235  A    between atoms: _567  and  _568
REMARK  236  A    between atoms: _570  and  _572
REMARK  237  A    between atoms: _572  and  _573
REMARK  238  A    between atoms: _572  and  _575
REMARK  239  A    between atoms: _575  and  _576
REMARK  240  A    between atoms: _576  and  _577
REMARK  241  A    between atoms: _579  and  _581
REMARK  242  A    between atoms: _581  and  _582
REMARK  243  A    between atoms: _581  and  _584
REMARK  244  A    between atoms: _584  and  _585
REMARK  245  A    between atoms: _587  and  _589
REMARK  246  A    between atoms: _589  and  _590
REMARK  247  A    between atoms: _589  and  _592
REMARK  248  A    between atoms: _592  and  _593
REMARK  249  A    between atoms: _593  and  _594
REMARK  250  A    between atoms: _597  and  _599
REMARK  251  A    between atoms: _599  and  _600
REMARK  252  A    between atoms: _599  and  _602
REMARK  253  A    between atoms: _605  and  _607
REMARK  254  A    between atoms: _607  and  _608
REMARK  255  A    between atoms: _607  and  _610
REMARK  256  A    between atoms: _610  and  _611
REMARK  257  A    between atoms: _614  and  _616
REMARK  258  A    between atoms: _616  and  _617
REMARK  259  A    between atoms: _616  and  _619
REMARK  260  A    between atoms: _619  and  _620
REMARK                            x       y       z     vdW  Elec       q    Type
REMARK                         _______ _______ _______ _____ _____    ______ ____
ROOT
ATOM      1  O   HOH     1      15.028   0.497  18.256  0.00  0.00    +0.000 OA
ENDROOT
TORSDOF 0
REMARK  Name = ../refined-set-2016/2w8y/2w8y_pocket.pdb
REMARK  260 active torsions:
REMARK  status: ('A' for Active; 'I' for Inactive)
REMARK    1  A    between atoms: _1  and  _3
REMARK    2  A    between atoms: _3  and  _4
REMARK    3  A    between atoms: _3  and  _6
REMARK    4  A    between atoms: _6  and  _7
REMARK    5  A    between atoms: _10  and  _12
REMARK    6  A    between atoms: _12  and  _13
REMARK    7  A    between atoms: _16  and  _18
REMARK    8  A    between atoms: _18  and  _19
REMARK    9  A    between atoms: _18  and  _21
REMARK   10  A    between atoms: _21  and  _22
REMARK   11  A    between atoms: _24  and  _26
REMARK   12  A    between atoms: _26  and  _27
REMARK   13  A    between atoms: _26  and  _29
REMARK   14  A    between atoms: _29  and  _30
REMARK   15  A    between atoms: _33  and  _35
REMARK   16  A    between atoms: _35  and  _36
REMARK   17  A    between atoms: _35  and  _38
REMARK   18  A    between atoms: _38  and  _39
REMARK   19  A    between atoms: _42  and  _44
REMARK   20  A    between atoms: _44  and  _45
REMARK   21  A    between atoms: _44  and  _47
REMARK   22  A    between atoms: _47  and  _48
REMARK   23  A    between atoms: _51  and  _53
REMARK   24  A    between atoms: _53  and  _54
REMARK   25  A    between atoms: _53  and  _56
REMARK   26  A    between atoms: _56  and  _57
REMARK   27  A    between atoms: _59  and  _61
REMARK   28  A    between atoms: _61  and  _62
REMARK   29  A    between atoms: _61  and  _64
REMARK   30  A    between atoms: _64  and  _65
REMARK   31  A    between atoms: _68  and  _70
REMARK   32  A    between atoms: _70  and  _71
REMARK   33  A    between atoms: _70  and  _73
REMARK   34  A    between atoms: _73  and  _74
REMARK   35  A    between atoms: _79  and  _81
REMARK   36  A    between atoms: _81  and  _82
REMARK   37  A    between atoms: _81  and  _84
REMARK   38  A    between atoms: _84  and  _85
REMARK   39  A    between atoms: _85  and  _86
REMARK   40  A    between atoms: _91  and  _93
REMARK   41  A    between atoms: _93  and  _94
REMARK   42  A    between atoms: _93  and  _96
REMARK   43  A    between atoms: _96  and  _97
REMARK   44  A    between atoms: _100  and  _102
REMARK   45  A    between atoms: _102  and  _103
REMARK   46  A    between atoms: _105  and  _107
REMARK   47  A    between atoms: _107  and  _108
REMARK   48  A    between atoms: _107  and  _110
REMARK   49  A    between atoms: _110  and  _111
REMARK   50  A    between atoms: _111  and  _112
REMARK   51  A    between atoms: _115  and  _117
REMARK   52  A    between atoms: _117  and  _118
REMARK   53  A    between atoms: _117  and  _120
REMARK   54  A    between atoms: _120  and  _121
REMARK   55  A    between atoms: _121  and  _122
REMARK   56  A    between atoms: _122  and  _123
REMARK   57  A    between atoms: _132  and  _134
REMARK   58  A    between atoms: _134  and  _135
REMARK   59  A    between atoms: _134  and  _137
REMARK   60  A    between atoms: _137  and  _138
REMARK   61  A    between atoms: _138  and  _139
REMARK   62  A    between atoms: _144  and  _146
REMARK   63  A    between atoms: _146  and  _147
REMARK   64  A    between atoms: _146  and  _149
REMARK   65  A    between atoms: _149  and  _150
REMARK   66  A    between atoms: _153  and  _155
REMARK   67  A    between atoms: _155  and  _156
REMARK   68  A    between atoms: _155  and  _158
REMARK   69  A    between atoms: _158  and  _159
REMARK   70  A    between atoms: _162  and  _164
REMARK   71  A    between atoms: _164  and  _165
REMARK   72  A    between atoms: _164  and  _167
REMARK   73  A    between atoms: _167  and  _168
REMARK   74  A    between atoms: _178  and  _180
REMARK   75  A    between atoms: _180  and  _181
REMARK   76  A    between atoms: _180  and  _183
REMARK   77  A    between atoms: _183  and  _184
REMARK   78  A    between atoms: _184  and  _185
REMARK   79  A    between atoms: _187  and  _189
REMARK   80  A    between atoms: _189  and  _190
REMARK   81  A    between atoms: _189  and  _192
REMARK   82  A    between atoms: _192  and  _193
REMARK   83  A    between atoms: _195  and  _197
REMARK   84  A    between atoms: _197  and  _198
REMARK   85  A    between atoms: _197  and  _200
REMARK   86  A    between atoms: _200  and  _201
REMARK   87  A    between atoms: _204  and  _206
REMARK   88  A    between atoms: _206  and  _207
REMARK   89  A    between atoms: _206  and  _209
REMARK   90  A    between atoms: _209  and  _210
REMARK   91  A    between atoms: _210  and  _211
REMARK   92  A    between atoms: _213  and  _215
REMARK   93  A    between atoms: _215  and  _216
REMARK   94  A    between atoms: _215  and  _218
REMARK   95  A    between atoms: _221  and  _223
REMARK   96  A    between atoms: _223  and  _224
REMARK   97  A    between atoms: _223  and  _226
REMARK   98  A    between atoms: _226  and  _227
REMARK   99  A    between atoms: _233  and  _235
REMARK  100  A    between atoms: _235  and  _236
REMARK  101  A    between atoms: _238  and  _240
REMARK  102  A    between atoms: _240  and  _241
REMARK  103  A    between atoms: _240  and  _243
REMARK  104  A    between atoms: _243  and  _244
REMARK  105  A    between atoms: _247  and  _249
REMARK  106  A    between atoms: _249  and  _250
REMARK  107  A    between atoms: _252  and  _254
REMARK  108  A    between atoms: _254  and  _255
REMARK  109  A    between atoms: _254  and  _257
REMARK  110  A    between atoms: _257  and  _258
REMARK  111  A    between atoms: _258  and  _259
REMARK  112  A    between atoms: _259  and  _260
REMARK  113  A    between atoms: _269  and  _271
REMARK  114  A    between atoms: _271  and  _272
REMARK  115  A    between atoms: _271  and  _274
REMARK  116  A    between atoms: _274  and  _275
REMARK  117  A    between atoms: _277  and  _279
REMARK  118  A    between atoms: _279  and  _280
REMARK  119  A    between atoms: _279  and  _282
REMARK  120  A    between atoms: _282  and  _283
REMARK  121  A    between atoms: _288  and  _289
REMARK  122  A    between atoms: _291  and  _293
REMARK  123  A    between atoms: _293  and  _294
REMARK  124  A    between atoms: _293  and  _296
REMARK  125  A    between atoms: _296  and  _297
REMARK  126  A    between atoms: _303  and  _305
REMARK  127  A    between atoms: _305  and  _306
REMARK  128  A    between atoms: _309  and  _311
REMARK  129  A    between atoms: _311  and  _312
REMARK  130  A    between atoms: _311  and  _314
REMARK  131  A    between atoms: _314  and  _315
REMARK  132  A    between atoms: _318  and  _320
REMARK  133  A    between atoms: _320  and  _321
REMARK  134  A    between atoms: _320  and  _323
REMARK  135  A    between atoms: _323  and  _324
REMARK  136  A    between atoms: _327  and  _329
REMARK  137  A    between atoms: _329  and  _330
REMARK  138  A    between atoms: _329  and  _332
REMARK  139  A    between atoms: _332  and  _333
REMARK  140  A    between atoms: _335  and  _337
REMARK  141  A    between atoms: _337  and  _338
REMARK  142  A    between atoms: _337  and  _340
REMARK  143  A    between atoms: _340  and  _341
REMARK  144  A    between atoms: _343  and  _345
REMARK  145  A    between atoms: _345  and  _346
REMARK  146  A    between atoms: _345  and  _348
REMARK  147  A    between atoms: _348  and  _349
REMARK  148  A    between atoms: _355  and  _357
REMARK  149  A    between atoms: _357  and  _358
REMARK  150  A    between atoms: _357  and  _360
REMARK  151  A    between atoms: _360  and  _361
REMARK  152  A    between atoms: _366  and  _367
REMARK  153  A    between atoms: _369  and  _371
REMARK  154  A    between atoms: _371  and  _372
REMARK  155  A    between atoms: _371  and  _374
REMARK  156  A    between atoms: _374  and  _375
REMARK  157  A    between atoms: _378  and  _380
REMARK  158  A    between atoms: _380  and  _381
REMARK  159  A    between atoms: _380  and  _383
REMARK  160  A    between atoms: _385  and  _387
REMARK  161  A    between atoms: _387  and  _388
REMARK  162  A    between atoms: _387  and  _390
REMARK  163  A    between atoms: _390  and  _391
REMARK  164  A    between atoms: _391  and  _392
REMARK  165  A    between atoms: _394  and  _396
REMARK  166  A    between atoms: _396  and  _397
REMARK  167  A    between atoms: _396  and  _399
REMARK  168  A    between atoms: _399  and  _400
REMARK  169  A    between atoms: _403  and  _405
REMARK  170  A    between atoms: _405  and  _406
REMARK  171  A    between atoms: _405  and  _408
REMARK  172  A    between atoms: _411  and  _413
REMARK  173  A    between atoms: _413  and  _414
REMARK  174  A    between atoms: _413  and  _416
REMARK  175  A    between atoms: _416  and  _417
REMARK  176  A    between atoms: _417  and  _418
REMARK  177  A    between atoms: _423  and  _425
REMARK  178  A    between atoms: _425  and  _426
REMARK  179  A    between atoms: _425  and  _428
REMARK  180  A    between atoms: _428  and  _429
REMARK  181  A    between atoms: _432  and  _434
REMARK  182  A    between atoms: _434  and  _435
REMARK  183  A    between atoms: _434  and  _437
REMARK  184  A    between atoms: _437  and  _438
REMARK  185  A    between atoms: _443  and  _445
REMARK  186  A    between atoms: _445  and  _446
REMARK  187  A    between atoms: _445  and  _448
REMARK  188  A    between atoms: _448  and  _449
REMARK  189  A    between atoms: _452  and  _454
REMARK  190  A    between atoms: _454  and  _455
REMARK  191  A    between atoms: _454  and  _457
REMARK  192  A    between atoms: _457  and  _458
REMARK  193  A    between atoms: _463  and  _464
REMARK  194  A    between atoms: _466  and  _468
REMARK  195  A    between atoms: _468  and  _469
REMARK  196  A    between atoms: _468  and  _471
REMARK  197  A    between atoms: _473  and  _475
REMARK  198  A    between atoms: _475  and  _476
REMARK  199  A    between atoms: _475  and  _478
REMARK  200  A    between atoms: _478  and  _479
REMARK  201  A    between atoms: _482  and  _484
REMARK  202  A    between atoms: _484  and  _485
REMARK  203  A    between atoms: _484  and  _487
REMARK  204  A    between atoms: _487  and  _488
REMARK  205  A    between atoms: _493  and  _495
REMARK  206  A    between atoms: _495  and  _496
REMARK  207  A    between atoms: _495  and  _498
REMARK  208  A    between atoms: _498  and  _499
REMARK  209  A    between atoms: _502  and  _504
REMARK  210  A    between atoms: _504  and  _505
REMARK  211  A    between atoms: _504  and  _507
REMARK  212  A    between atoms: _507  and  _508
REMARK  213  A    between atoms: _514  and  _516
REMARK  214  A    between atoms: _516  and  _517
REMARK  215  A    between atoms: _516  and  _519
REMARK  216  A    between atoms: _522  and  _524
REMARK  217  A    between atoms: _524  and  _525
REMARK  218  A    between atoms: _524  and  _527
REMARK  219  A    between atoms: _527  and  _528
REMARK  220  A    between atoms: _528  and  _529
REMARK  221  A    between atoms: _532  and  _534
REMARK  222  A    between atoms: _534  and  _535
REMARK  223  A    between atoms: _534  and  _537
REMARK  224  A    between atoms: _537  and  _538
REMARK  225  A    between atoms: _545  and  _546
REMARK  226  A    between atoms: _551  and  _553
REMARK  227  A    between atoms: _553  and  _554
REMARK  228  A    between atoms: _553  and  _556
REMARK  229  A    between atoms: _556  and  _557
REMARK  230  A    between atoms: _557  and  _558
REMARK  231  A    between atoms: _561  and  _563
REMARK  232  A    between atoms: _563  and  _564
REMARK  233  A    between atoms: _563  and  _566
REMARK  234  A    between atoms: _566  and  _567
REMARK  235  A    between atoms: _567  and  _568
REMARK  236  A    between atoms: _570  and  _572
REMARK  237  A    between atoms: _572  and  _573
REMARK  238  A    between atoms: _572  and  _575
REMARK  239  A    between atoms: _575  and  _576
REMARK  240  A    between atoms: _576  and  _577
REMARK  241  A    between atoms: _579  and  _581
REMARK  242  A    between atoms: _581  and  _582
REMARK  243  A    between atoms: _581  and  _584
REMARK  244  A    between atoms: _584  and  _585
REMARK  245  A    between atoms: _587  and  _589
REMARK  246  A    between atoms: _589  and  _590
REMARK  247  A    between atoms: _589  and  _592
REMARK  248  A    between atoms: _592  and  _593
REMARK  249  A    between atoms: _593  and  _594
REMARK  250  A    between atoms: _597  and  _599
REMARK  251  A    between atoms: _599  and  _600
REMARK  252  A    between atoms: _599  and  _602
REMARK  253  A    between atoms: _605  and  _607
REMARK  254  A    between atoms: _607  and  _608
REMARK  255  A    between atoms: _607  and  _610
REMARK  256  A    between atoms: _610  and  _611
REMARK  257  A    between atoms: _614  and  _616
REMARK  258  A    between atoms: _616  and  _617
REMARK  259  A    between atoms: _616  and  _619
REMARK  260  A    between atoms: _619  and  _620
REMARK                            x       y       z     vdW  Elec       q    Type
REMARK                         _______ _______ _______ _____ _____    ______ ____
ROOT
ATOM      1  O   HOH     1      11.985  -4.803   6.089  0.00  0.00    +0.000 OA
ENDROOT
TORSDOF 0
REMARK  Name = ../refined-set-2016/2w8y/2w8y_pocket.pdb
REMARK  260 active torsions:
REMARK  status: ('A' for Active; 'I' for Inactive)
REMARK    1  A    between atoms: _1  and  _3
REMARK    2  A    between atoms: _3  and  _4
REMARK    3  A    between atoms: _3  and  _6
REMARK    4  A    between atoms: _6  and  _7
REMARK    5  A    between atoms: _10  and  _12
REMARK    6  A    between atoms: _12  and  _13
REMARK    7  A    between atoms: _16  and  _18
REMARK    8  A    between atoms: _18  and  _19
REMARK    9  A    between atoms: _18  and  _21
REMARK   10  A    between atoms: _21  and  _22
REMARK   11  A    between atoms: _24  and  _26
REMARK   12  A    between atoms: _26  and  _27
REMARK   13  A    between atoms: _26  and  _29
REMARK   14  A    between atoms: _29  and  _30
REMARK   15  A    between atoms: _33  and  _35
REMARK   16  A    between atoms: _35  and  _36
REMARK   17  A    between atoms: _35  and  _38
REMARK   18  A    between atoms: _38  and  _39
REMARK   19  A    between atoms: _42  and  _44
REMARK   20  A    between atoms: _44  and  _45
REMARK   21  A    between atoms: _44  and  _47
REMARK   22  A    between atoms: _47  and  _48
REMARK   23  A    between atoms: _51  and  _53
REMARK   24  A    between atoms: _53  and  _54
REMARK   25  A    between atoms: _53  and  _56
REMARK   26  A    between atoms: _56  and  _57
REMARK   27  A    between atoms: _59  and  _61
REMARK   28  A    between atoms: _61  and  _62
REMARK   29  A    between atoms: _61  and  _64
REMARK   30  A    between atoms: _64  and  _65
REMARK   31  A    between atoms: _68  and  _70
REMARK   32  A    between atoms: _70  and  _71
REMARK   33  A    between atoms: _70  and  _73
REMARK   34  A    between atoms: _73  and  _74
REMARK   35  A    between atoms: _79  and  _81
REMARK   36  A    between atoms: _81  and  _82
REMARK   37  A    between atoms: _81  and  _84
REMARK   38  A    between atoms: _84  and  _85
REMARK   39  A    between atoms: _85  and  _86
REMARK   40  A    between atoms: _91  and  _93
REMARK   41  A    between atoms: _93  and  _94
REMARK   42  A    between atoms: _93  and  _96
REMARK   43  A    between atoms: _96  and  _97
REMARK   44  A    between atoms: _100  and  _102
REMARK   45  A    between atoms: _102  and  _103
REMARK   46  A    between atoms: _105  and  _107
REMARK   47  A    between atoms: _107  and  _108
REMARK   48  A    between atoms: _107  and  _110
REMARK   49  A    between atoms: _110  and  _111
REMARK   50  A    between atoms: _111  and  _112
REMARK   51  A    between atoms: _115  and  _117
REMARK   52  A    between atoms: _117  and  _118
REMARK   53  A    between atoms: _117  and  _120
REMARK   54  A    between atoms: _120  and  _121
REMARK   55  A    between atoms: _121  and  _122
REMARK   56  A    between atoms: _122  and  _123
REMARK   57  A    between atoms: _132  and  _134
REMARK   58  A    between atoms: _134  and  _135
REMARK   59  A    between atoms: _134  and  _137
REMARK   60  A    between atoms: _137  and  _138
REMARK   61  A    between atoms: _138  and  _139
REMARK   62  A    between atoms: _144  and  _146
REMARK   63  A    between atoms: _146  and  _147
REMARK   64  A    between atoms: _146  and  _149
REMARK   65  A    between atoms: _149  and  _150
REMARK   66  A    between atoms: _153  and  _155
REMARK   67  A    between atoms: _155  and  _156
REMARK   68  A    between atoms: _155  and  _158
REMARK   69  A    between atoms: _158  and  _159
REMARK   70  A    between atoms: _162  and  _164
REMARK   71  A    between atoms: _164  and  _165
REMARK   72  A    between atoms: _164  and  _167
REMARK   73  A    between atoms: _167  and  _168
REMARK   74  A    between atoms: _178  and  _180
REMARK   75  A    between atoms: _180  and  _181
REMARK   76  A    between atoms: _180  and  _183
REMARK   77  A    between atoms: _183  and  _184
REMARK   78  A    between atoms: _184  and  _185
REMARK   79  A    between atoms: _187  and  _189
REMARK   80  A    between atoms: _189  and  _190
REMARK   81  A    between atoms: _189  and  _192
REMARK   82  A    between atoms: _192  and  _193
REMARK   83  A    between atoms: _195  and  _197
REMARK   84  A    between atoms: _197  and  _198
REMARK   85  A    between atoms: _197  and  _200
REMARK   86  A    between atoms: _200  and  _201
REMARK   87  A    between atoms: _204  and  _206
REMARK   88  A    between atoms: _206  and  _207
REMARK   89  A    between atoms: _206  and  _209
REMARK   90  A    between atoms: _209  and  _210
REMARK   91  A    between atoms: _210  and  _211
REMARK   92  A    between atoms: _213  and  _215
REMARK   93  A    between atoms: _215  and  _216
REMARK   94  A    between atoms: _215  and  _218
REMARK   95  A    between atoms: _221  and  _223
REMARK   96  A    between atoms: _223  and  _224
REMARK   97  A    between atoms: _223  and  _226
REMARK   98  A    between atoms: _226  and  _227
REMARK   99  A    between atoms: _233  and  _235
REMARK  100  A    between atoms: _235  and  _236
REMARK  101  A    between atoms: _238  and  _240
REMARK  102  A    between atoms: _240  and  _241
REMARK  103  A    between atoms: _240  and  _243
REMARK  104  A    between atoms: _243  and  _244
REMARK  105  A    between atoms: _247  and  _249
REMARK  106  A    between atoms: _249  and  _250
REMARK  107  A    between atoms: _252  and  _254
REMARK  108  A    between atoms: _254  and  _255
REMARK  109  A    between atoms: _254  and  _257
REMARK  110  A    between atoms: _257  and  _258
REMARK  111  A    between atoms: _258  and  _259
REMARK  112  A    between atoms: _259  and  _260
REMARK  113  A    between atoms: _269  and  _271
REMARK  114  A    between atoms: _271  and  _272
REMARK  115  A    between atoms: _271  and  _274
REMARK  116  A    between atoms: _274  and  _275
REMARK  117  A    between atoms: _277  and  _279
REMARK  118  A    between atoms: _279  and  _280
REMARK  119  A    between atoms: _279  and  _282
REMARK  120  A    between atoms: _282  and  _283
REMARK  121  A    between atoms: _288  and  _289
REMARK  122  A    between atoms: _291  and  _293
REMARK  123  A    between atoms: _293  and  _294
REMARK  124  A    between atoms: _293  and  _296
REMARK  125  A    between atoms: _296  and  _297
REMARK  126  A    between atoms: _303  and  _305
REMARK  127  A    between atoms: _305  and  _306
REMARK  128  A    between atoms: _309  and  _311
REMARK  129  A    between atoms: _311  and  _312
REMARK  130  A    between atoms: _311  and  _314
REMARK  131  A    between atoms: _314  and  _315
REMARK  132  A    between atoms: _318  and  _320
REMARK  133  A    between atoms: _320  and  _321
REMARK  134  A    between atoms: _320  and  _323
REMARK  135  A    between atoms: _323  and  _324
REMARK  136  A    between atoms: _327  and  _329
REMARK  137  A    between atoms: _329  and  _330
REMARK  138  A    between atoms: _329  and  _332
REMARK  139  A    between atoms: _332  and  _333
REMARK  140  A    between atoms: _335  and  _337
REMARK  141  A    between atoms: _337  and  _338
REMARK  142  A    between atoms: _337  and  _340
REMARK  143  A    between atoms: _340  and  _341
REMARK  144  A    between atoms: _343  and  _345
REMARK  145  A    between atoms: _345  and  _346
REMARK  146  A    between atoms: _345  and  _348
REMARK  147  A    between atoms: _348  and  _349
REMARK  148  A    between atoms: _355  and  _357
REMARK  149  A    between atoms: _357  and  _358
REMARK  150  A    between atoms: _357  and  _360
REMARK  151  A    between atoms: _360  and  _361
REMARK  152  A    between atoms: _366  and  _367
REMARK  153  A    between atoms: _369  and  _371
REMARK  154  A    between atoms: _371  and  _372
REMARK  155  A    between atoms: _371  and  _374
REMARK  156  A    between atoms: _374  and  _375
REMARK  157  A    between atoms: _378  and  _380
REMARK  158  A    between atoms: _380  and  _381
REMARK  159  A    between atoms: _380  and  _383
REMARK  160  A    between atoms: _385  and  _387
REMARK  161  A    between atoms: _387  and  _388
REMARK  162  A    between atoms: _387  and  _390
REMARK  163  A    between atoms: _390  and  _391
REMARK  164  A    between atoms: _391  and  _392
REMARK  165  A    between atoms: _394  and  _396
REMARK  166  A    between atoms: _396  and  _397
REMARK  167  A    between atoms: _396  and  _399
REMARK  168  A    between atoms: _399  and  _400
REMARK  169  A    between atoms: _403  and  _405
REMARK  170  A    between atoms: _405  and  _406
REMARK  171  A    between atoms: _405  and  _408
REMARK  172  A    between atoms: _411  and  _413
REMARK  173  A    between atoms: _413  and  _414
REMARK  174  A    between atoms: _413  and  _416
REMARK  175  A    between atoms: _416  and  _417
REMARK  176  A    between atoms: _417  and  _418
REMARK  177  A    between atoms: _423  and  _425
REMARK  178  A    between atoms: _425  and  _426
REMARK  179  A    between atoms: _425  and  _428
REMARK  180  A    between atoms: _428  and  _429
REMARK  181  A    between atoms: _432  and  _434
REMARK  182  A    between atoms: _434  and  _435
REMARK  183  A    between atoms: _434  and  _437
REMARK  184  A    between atoms: _437  and  _438
REMARK  185  A    between atoms: _443  and  _445
REMARK  186  A    between atoms: _445  and  _446
REMARK  187  A    between atoms: _445  and  _448
REMARK  188  A    between atoms: _448  and  _449
REMARK  189  A    between atoms: _452  and  _454
REMARK  190  A    between atoms: _454  and  _455
REMARK  191  A    between atoms: _454  and  _457
REMARK  192  A    between atoms: _457  and  _458
REMARK  193  A    between atoms: _463  and  _464
REMARK  194  A    between atoms: _466  and  _468
REMARK  195  A    between atoms: _468  and  _469
REMARK  196  A    between atoms: _468  and  _471
REMARK  197  A    between atoms: _473  and  _475
REMARK  198  A    between atoms: _475  and  _476
REMARK  199  A    between atoms: _475  and  _478
REMARK  200  A    between atoms: _478  and  _479
REMARK  201  A    between atoms: _482  and  _484
REMARK  202  A    between atoms: _484  and  _485
REMARK  203  A    between atoms: _484  and  _487
REMARK  204  A    between atoms: _487  and  _488
REMARK  205  A    between atoms: _493  and  _495
REMARK  206  A    between atoms: _495  and  _496
REMARK  207  A    between atoms: _495  and  _498
REMARK  208  A    between atoms: _498  and  _499
REMARK  209  A    between atoms: _502  and  _504
REMARK  210  A    between atoms: _504  and  _505
REMARK  211  A    between atoms: _504  and  _507
REMARK  212  A    between atoms: _507  and  _508
REMARK  213  A    between atoms: _514  and  _516
REMARK  214  A    between atoms: _516  and  _517
REMARK  215  A    between atoms: _516  and  _519
REMARK  216  A    between atoms: _522  and  _524
REMARK  217  A    between atoms: _524  and  _525
REMARK  218  A    between atoms: _524  and  _527
REMARK  219  A    between atoms: _527  and  _528
REMARK  220  A    between atoms: _528  and  _529
REMARK  221  A    between atoms: _532  and  _534
REMARK  222  A    between atoms: _534  and  _535
REMARK  223  A    between atoms: _534  and  _537
REMARK  224  A    between atoms: _537  and  _538
REMARK  225  A    between atoms: _545  and  _546
REMARK  226  A    between atoms: _551  and  _553
REMARK  227  A    between atoms: _553  and  _554
REMARK  228  A    between atoms: _553  and  _556
REMARK  229  A    between atoms: _556  and  _557
REMARK  230  A    between atoms: _557  and  _558
REMARK  231  A    between atoms: _561  and  _563
REMARK  232  A    between atoms: _563  and  _564
REMARK  233  A    between atoms: _563  and  _566
REMARK  234  A    between atoms: _566  and  _567
REMARK  235  A    between atoms: _567  and  _568
REMARK  236  A    between atoms: _570  and  _572
REMARK  237  A    between atoms: _572  and  _573
REMARK  238  A    between atoms: _572  and  _575
REMARK  239  A    between atoms: _575  and  _576
REMARK  240  A    between atoms: _576  and  _577
REMARK  241  A    between atoms: _579  and  _581
REMARK  242  A    between atoms: _581  and  _582
REMARK  243  A    between atoms: _581  and  _584
REMARK  244  A    between atoms: _584  and  _585
REMARK  245  A    between atoms: _587  and  _589
REMARK  246  A    between atoms: _589  and  _590
REMARK  247  A    between atoms: _589  and  _592
REMARK  248  A    between atoms: _592  and  _593
REMARK  249  A    between atoms: _593  and  _594
REMARK  250  A    between atoms: _597  and  _599
REMARK  251  A    between atoms: _599  and  _600
REMARK  252  A    between atoms: _599  and  _602
REMARK  253  A    between atoms: _605  and  _607
REMARK  254  A    between atoms: _607  and  _608
REMARK  255  A    between atoms: _607  and  _610
REMARK  256  A    between atoms: _610  and  _611
REMARK  257  A    between atoms: _614  and  _616
REMARK  258  A    between atoms: _616  and  _617
REMARK  259  A    between atoms: _616  and  _619
REMARK  260  A    between atoms: _619  and  _620
REMARK                            x       y       z     vdW  Elec       q    Type
REMARK                         _______ _______ _______ _____ _____    ______ ____
ROOT
ATOM      1  O   HOH     1       8.061  -6.612   6.662  0.00  0.00    +0.000 OA
ENDROOT
TORSDOF 0
