REMARK  Name = ../refined-set-2016/1m2x/1m2x_pocket.pdb
REMARK  115 active torsions:
REMARK  status: ('A' for Active; 'I' for Inactive)
REMARK    1  A    between atoms: _1  and  _3
REMARK    2  A    between atoms: _3  and  _4
REMARK    3  A    between atoms: _3  and  _6
REMARK    4  A    between atoms: _6  and  _7
REMARK    5  A    between atoms: _12  and  _14
REMARK    6  A    between atoms: _14  and  _15
REMARK    7  A    between atoms: _14  and  _17
REMARK    8  A    between atoms: _17  and  _18
REMARK    9  A    between atoms: _24  and  _26
REMARK   10  A    between atoms: _26  and  _27
REMARK   11  A    between atoms: _26  and  _29
REMARK   12  A    between atoms: _29  and  _30
REMARK   13  A    between atoms: _35  and  _36
REMARK   14  A    between atoms: _38  and  _40
REMARK   15  A    between atoms: _40  and  _41
REMARK   16  A    between atoms: _44  and  _46
REMARK   17  A    between atoms: _46  and  _47
REMARK   18  A    between atoms: _46  and  _49
REMARK   19  A    between atoms: _49  and  _50
REMARK   20  A    between atoms: _60  and  _62
REMARK   21  A    between atoms: _73  and  _76
REMARK   22  A    between atoms: _76  and  _77
REMARK   23  A    between atoms: _81  and  _82
REMARK   24  A    between atoms: _90  and  _92
REMARK   25  A    between atoms: _92  and  _93
REMARK   26  A    between atoms: _92  and  _95
REMARK   27  A    between atoms: _95  and  _96
REMARK   28  A    between atoms: _99  and  _101
REMARK   29  A    between atoms: _101  and  _102
REMARK   30  A    between atoms: _101  and  _104
REMARK   31  A    between atoms: _104  and  _105
REMARK   32  A    between atoms: _105  and  _107
REMARK   33  A    between atoms: _107  and  ZN_291
REMARK   34  A    between atoms: _108  and  _110
REMARK   35  A    between atoms: _110  and  _111
REMARK   36  A    between atoms: _110  and  _113
REMARK   37  A    between atoms: _113  and  _114
REMARK   38  A    between atoms: _114  and  _115
REMARK   39  A    between atoms: _115  and  _116
REMARK   40  A    between atoms: _125  and  _127
REMARK   41  A    between atoms: _127  and  _128
REMARK   42  A    between atoms: _131  and  _133
REMARK   43  A    between atoms: _133  and  _134
REMARK   44  A    between atoms: _136  and  _138
REMARK   45  A    between atoms: _138  and  _139
REMARK   46  A    between atoms: _138  and  _141
REMARK   47  A    between atoms: _141  and  _142
REMARK   48  A    between atoms: _145  and  _147
REMARK   49  A    between atoms: _147  and  _148
REMARK   50  A    between atoms: _147  and  _150
REMARK   51  A    between atoms: _150  and  _151
REMARK   52  A    between atoms: _151  and  _152
REMARK   53  A    between atoms: _155  and  _157
REMARK   54  A    between atoms: _157  and  _158
REMARK   55  A    between atoms: _157  and  _160
REMARK   56  A    between atoms: _160  and  _161
REMARK   57  A    between atoms: _161  and  _162
REMARK   58  A    between atoms: _162  and  _163
REMARK   59  A    between atoms: _163  and  _164
REMARK   60  A    between atoms: _168  and  _170
REMARK   61  A    between atoms: _170  and  _171
REMARK   62  A    between atoms: _170  and  _173
REMARK   63  A    between atoms: _173  and  _174
REMARK   64  A    between atoms: _178  and  ZN_290
REMARK   65  A    between atoms: _179  and  _181
REMARK   66  A    between atoms: _181  and  _182
REMARK   67  A    between atoms: _181  and  _184
REMARK   68  A    between atoms: _184  and  _185
REMARK   69  A    between atoms: _188  and  _190
REMARK   70  A    between atoms: _190  and  _191
REMARK   71  A    between atoms: _193  and  _195
REMARK   72  A    between atoms: _195  and  _196
REMARK   73  A    between atoms: _195  and  _198
REMARK   74  A    between atoms: _198  and  _199
REMARK   75  A    between atoms: _199  and  ZN_291
REMARK   76  A    between atoms: _200  and  _202
REMARK   77  A    between atoms: _202  and  _203
REMARK   78  A    between atoms: _202  and  _205
REMARK   79  A    between atoms: _205  and  _206
REMARK   80  A    between atoms: _209  and  _211
REMARK   81  A    between atoms: _211  and  _212
REMARK   82  A    between atoms: _211  and  _214
REMARK   83  A    between atoms: _214  and  _215
REMARK   84  A    between atoms: _215  and  _216
REMARK   85  A    between atoms: _216  and  _217
REMARK   86  A    between atoms: _217  and  _218
REMARK   87  A    between atoms: _222  and  _224
REMARK   88  A    between atoms: _224  and  _225
REMARK   89  A    between atoms: _224  and  _227
REMARK   90  A    between atoms: _227  and  _228
REMARK   91  A    between atoms: _231  and  _233
REMARK   92  A    between atoms: _233  and  _234
REMARK   93  A    between atoms: _236  and  _238
REMARK   94  A    between atoms: _238  and  _239
REMARK   95  A    between atoms: _238  and  _241
REMARK   96  A    between atoms: _241  and  _242
REMARK   97  A    between atoms: _247  and  _248
REMARK   98  A    between atoms: _250  and  _252
REMARK   99  A    between atoms: _252  and  _253
REMARK  100  A    between atoms: _252  and  _255
REMARK  101  A    between atoms: _255  and  _256
REMARK  102  A    between atoms: _259  and  _261
REMARK  103  A    between atoms: _261  and  _262
REMARK  104  A    between atoms: _264  and  _266
REMARK  105  A    between atoms: _266  and  _267
REMARK  106  A    between atoms: _266  and  _269
REMARK  107  A    between atoms: _269  and  _270
REMARK  108  A    between atoms: _270  and  _271
REMARK  109  A    between atoms: _274  and  _276
REMARK  110  A    between atoms: _276  and  _277
REMARK  111  A    between atoms: _279  and  _281
REMARK  112  A    between atoms: _281  and  _282
REMARK  113  A    between atoms: _281  and  _284
REMARK  114  A    between atoms: _284  and  _285
REMARK  115  A    between atoms: _289  and  ZN_291
REMARK                            x       y       z     vdW  Elec       q    Type
REMARK                         _______ _______ _______ _____ _____    ______ ____
ROOT
ATOM      1  CB  ASN A   1     -25.311  45.913   7.092  0.00  0.00    +0.110 C 
ENDROOT
BRANCH   1   2
ATOM      2  CG  ASN A   1     -26.765  45.518   7.210  0.00  0.00    +0.221 C 
ATOM      3  OD1 ASN A   1     -27.550  46.185   7.887  0.00  0.00    -0.275 OA
ATOM      4  ND2 ASN A   1     -27.135  44.422   6.558  0.00  0.00    -0.329 N 
ATOM      5 HD21 ASN A   1     -28.121  44.096   6.607  0.00  0.00    +0.145 HD
ATOM      6 HD22 ASN A   1     -26.438  43.890   5.998  0.00  0.00    +0.145 HD
ENDBRANCH   1   2
BRANCH   1   7
ATOM      7  CA  ASN A   1     -25.081  47.398   7.376  0.00  0.00    +0.142 C 
BRANCH   7   8
ATOM      8  N   ASN A   1     -23.838  47.841   6.756  0.00  0.00    -0.239 NA
ATOM      9  H   ASN A   1     -22.941  47.669   7.254  0.00  0.00    +0.142 HD
ENDBRANCH   7   8
BRANCH   7  10
ATOM     10  C   ASN A   1     -24.939  47.625   8.879  0.00  0.00    +0.225 C 
ATOM     11  O   ASN A   1     -24.005  47.123   9.506  0.00  0.00    -0.287 OA
ENDBRANCH   7  10
ENDBRANCH   1   7
TORSDOF 4
REMARK  Name = ../refined-set-2016/1m2x/1m2x_pocket.pdb
REMARK  115 active torsions:
REMARK  status: ('A' for Active; 'I' for Inactive)
REMARK    1  A    between atoms: _1  and  _3
REMARK    2  A    between atoms: _3  and  _4
REMARK    3  A    between atoms: _3  and  _6
REMARK    4  A    between atoms: _6  and  _7
REMARK    5  A    between atoms: _12  and  _14
REMARK    6  A    between atoms: _14  and  _15
REMARK    7  A    between atoms: _14  and  _17
REMARK    8  A    between atoms: _17  and  _18
REMARK    9  A    between atoms: _24  and  _26
REMARK   10  A    between atoms: _26  and  _27
REMARK   11  A    between atoms: _26  and  _29
REMARK   12  A    between atoms: _29  and  _30
REMARK   13  A    between atoms: _35  and  _36
REMARK   14  A    between atoms: _38  and  _40
REMARK   15  A    between atoms: _40  and  _41
REMARK   16  A    between atoms: _44  and  _46
REMARK   17  A    between atoms: _46  and  _47
REMARK   18  A    between atoms: _46  and  _49
REMARK   19  A    between atoms: _49  and  _50
REMARK   20  A    between atoms: _60  and  _62
REMARK   21  A    between atoms: _73  and  _76
REMARK   22  A    between atoms: _76  and  _77
REMARK   23  A    between atoms: _81  and  _82
REMARK   24  A    between atoms: _90  and  _92
REMARK   25  A    between atoms: _92  and  _93
REMARK   26  A    between atoms: _92  and  _95
REMARK   27  A    between atoms: _95  and  _96
REMARK   28  A    between atoms: _99  and  _101
REMARK   29  A    between atoms: _101  and  _102
REMARK   30  A    between atoms: _101  and  _104
REMARK   31  A    between atoms: _104  and  _105
REMARK   32  A    between atoms: _105  and  _107
REMARK   33  A    between atoms: _107  and  ZN_291
REMARK   34  A    between atoms: _108  and  _110
REMARK   35  A    between atoms: _110  and  _111
REMARK   36  A    between atoms: _110  and  _113
REMARK   37  A    between atoms: _113  and  _114
REMARK   38  A    between atoms: _114  and  _115
REMARK   39  A    between atoms: _115  and  _116
REMARK   40  A    between atoms: _125  and  _127
REMARK   41  A    between atoms: _127  and  _128
REMARK   42  A    between atoms: _131  and  _133
REMARK   43  A    between atoms: _133  and  _134
REMARK   44  A    between atoms: _136  and  _138
REMARK   45  A    between atoms: _138  and  _139
REMARK   46  A    between atoms: _138  and  _141
REMARK   47  A    between atoms: _141  and  _142
REMARK   48  A    between atoms: _145  and  _147
REMARK   49  A    between atoms: _147  and  _148
REMARK   50  A    between atoms: _147  and  _150
REMARK   51  A    between atoms: _150  and  _151
REMARK   52  A    between atoms: _151  and  _152
REMARK   53  A    between atoms: _155  and  _157
REMARK   54  A    between atoms: _157  and  _158
REMARK   55  A    between atoms: _157  and  _160
REMARK   56  A    between atoms: _160  and  _161
REMARK   57  A    between atoms: _161  and  _162
REMARK   58  A    between atoms: _162  and  _163
REMARK   59  A    between atoms: _163  and  _164
REMARK   60  A    between atoms: _168  and  _170
REMARK   61  A    between atoms: _170  and  _171
REMARK   62  A    between atoms: _170  and  _173
REMARK   63  A    between atoms: _173  and  _174
REMARK   64  A    between atoms: _178  and  ZN_290
REMARK   65  A    between atoms: _179  and  _181
REMARK   66  A    between atoms: _181  and  _182
REMARK   67  A    between atoms: _181  and  _184
REMARK   68  A    between atoms: _184  and  _185
REMARK   69  A    between atoms: _188  and  _190
REMARK   70  A    between atoms: _190  and  _191
REMARK   71  A    between atoms: _193  and  _195
REMARK   72  A    between atoms: _195  and  _196
REMARK   73  A    between atoms: _195  and  _198
REMARK   74  A    between atoms: _198  and  _199
REMARK   75  A    between atoms: _199  and  ZN_291
REMARK   76  A    between atoms: _200  and  _202
REMARK   77  A    between atoms: _202  and  _203
REMARK   78  A    between atoms: _202  and  _205
REMARK   79  A    between atoms: _205  and  _206
REMARK   80  A    between atoms: _209  and  _211
REMARK   81  A    between atoms: _211  and  _212
REMARK   82  A    between atoms: _211  and  _214
REMARK   83  A    between atoms: _214  and  _215
REMARK   84  A    between atoms: _215  and  _216
REMARK   85  A    between atoms: _216  and  _217
REMARK   86  A    between atoms: _217  and  _218
REMARK   87  A    between atoms: _222  and  _224
REMARK   88  A    between atoms: _224  and  _225
REMARK   89  A    between atoms: _224  and  _227
REMARK   90  A    between atoms: _227  and  _228
REMARK   91  A    between atoms: _231  and  _233
REMARK   92  A    between atoms: _233  and  _234
REMARK   93  A    between atoms: _236  and  _238
REMARK   94  A    between atoms: _238  and  _239
REMARK   95  A    between atoms: _238  and  _241
REMARK   96  A    between atoms: _241  and  _242
REMARK   97  A    between atoms: _247  and  _248
REMARK   98  A    between atoms: _250  and  _252
REMARK   99  A    between atoms: _252  and  _253
REMARK  100  A    between atoms: _252  and  _255
REMARK  101  A    between atoms: _255  and  _256
REMARK  102  A    between atoms: _259  and  _261
REMARK  103  A    between atoms: _261  and  _262
REMARK  104  A    between atoms: _264  and  _266
REMARK  105  A    between atoms: _266  and  _267
REMARK  106  A    between atoms: _266  and  _269
REMARK  107  A    between atoms: _269  and  _270
REMARK  108  A    between atoms: _270  and  _271
REMARK  109  A    between atoms: _274  and  _276
REMARK  110  A    between atoms: _276  and  _277
REMARK  111  A    between atoms: _279  and  _281
REMARK  112  A    between atoms: _281  and  _282
REMARK  113  A    between atoms: _281  and  _284
REMARK  114  A    between atoms: _284  and  _285
REMARK  115  A    between atoms: _289  and  ZN_291
REMARK                            x       y       z     vdW  Elec       q    Type
REMARK                         _______ _______ _______ _____ _____    ______ ____
ROOT
ATOM      1  CB  PHE A   1     -25.933  44.794  13.569  0.00  0.00    +0.051 C 
ENDROOT
BRANCH   1   2
ATOM      2  CG  PHE A   1     -26.257  44.003  12.333  0.00  0.00    -0.020 A 
ATOM      3  CD2 PHE A   1     -27.168  42.951  12.388  0.00  0.00    -0.004 A 
ATOM      4  CE2 PHE A   1     -27.478  42.213  11.249  0.00  0.00    -0.000 A 
ATOM      5  CZ  PHE A   1     -26.873  42.527  10.035  0.00  0.00    -0.000 A 
ATOM      6  CE1 PHE A   1     -25.963  43.576   9.969  0.00  0.00    -0.000 A 
ATOM      7  CD1 PHE A   1     -25.659  44.309  11.115  0.00  0.00    -0.004 A 
ENDBRANCH   1   2
BRANCH   1   8
ATOM      8  CA  PHE A   1     -26.601  46.173  13.624  0.00  0.00    +0.137 C 
BRANCH   8   9
ATOM      9  N   PHE A   1     -25.963  47.101  12.701  0.00  0.00    -0.239 NA
ATOM     10  H   PHE A   1     -24.941  47.272  12.792  0.00  0.00    +0.142 HD
ENDBRANCH   8   9
BRANCH   8  11
ATOM     11  C   PHE A   1     -26.520  46.691  15.054  0.00  0.00    +0.224 C 
ATOM     12  O   PHE A   1     -25.435  46.775  15.637  0.00  0.00    -0.287 OA
ENDBRANCH   8  11
ENDBRANCH   1   8
TORSDOF 4
REMARK  Name = ../refined-set-2016/1m2x/1m2x_pocket.pdb
REMARK  115 active torsions:
REMARK  status: ('A' for Active; 'I' for Inactive)
REMARK    1  A    between atoms: _1  and  _3
REMARK    2  A    between atoms: _3  and  _4
REMARK    3  A    between atoms: _3  and  _6
REMARK    4  A    between atoms: _6  and  _7
REMARK    5  A    between atoms: _12  and  _14
REMARK    6  A    between atoms: _14  and  _15
REMARK    7  A    between atoms: _14  and  _17
REMARK    8  A    between atoms: _17  and  _18
REMARK    9  A    between atoms: _24  and  _26
REMARK   10  A    between atoms: _26  and  _27
REMARK   11  A    between atoms: _26  and  _29
REMARK   12  A    between atoms: _29  and  _30
REMARK   13  A    between atoms: _35  and  _36
REMARK   14  A    between atoms: _38  and  _40
REMARK   15  A    between atoms: _40  and  _41
REMARK   16  A    between atoms: _44  and  _46
REMARK   17  A    between atoms: _46  and  _47
REMARK   18  A    between atoms: _46  and  _49
REMARK   19  A    between atoms: _49  and  _50
REMARK   20  A    between atoms: _60  and  _62
REMARK   21  A    between atoms: _73  and  _76
REMARK   22  A    between atoms: _76  and  _77
REMARK   23  A    between atoms: _81  and  _82
REMARK   24  A    between atoms: _90  and  _92
REMARK   25  A    between atoms: _92  and  _93
REMARK   26  A    between atoms: _92  and  _95
REMARK   27  A    between atoms: _95  and  _96
REMARK   28  A    between atoms: _99  and  _101
REMARK   29  A    between atoms: _101  and  _102
REMARK   30  A    between atoms: _101  and  _104
REMARK   31  A    between atoms: _104  and  _105
REMARK   32  A    between atoms: _105  and  _107
REMARK   33  A    between atoms: _107  and  ZN_291
REMARK   34  A    between atoms: _108  and  _110
REMARK   35  A    between atoms: _110  and  _111
REMARK   36  A    between atoms: _110  and  _113
REMARK   37  A    between atoms: _113  and  _114
REMARK   38  A    between atoms: _114  and  _115
REMARK   39  A    between atoms: _115  and  _116
REMARK   40  A    between atoms: _125  and  _127
REMARK   41  A    between atoms: _127  and  _128
REMARK   42  A    between atoms: _131  and  _133
REMARK   43  A    between atoms: _133  and  _134
REMARK   44  A    between atoms: _136  and  _138
REMARK   45  A    between atoms: _138  and  _139
REMARK   46  A    between atoms: _138  and  _141
REMARK   47  A    between atoms: _141  and  _142
REMARK   48  A    between atoms: _145  and  _147
REMARK   49  A    between atoms: _147  and  _148
REMARK   50  A    between atoms: _147  and  _150
REMARK   51  A    between atoms: _150  and  _151
REMARK   52  A    between atoms: _151  and  _152
REMARK   53  A    between atoms: _155  and  _157
REMARK   54  A    between atoms: _157  and  _158
REMARK   55  A    between atoms: _157  and  _160
REMARK   56  A    between atoms: _160  and  _161
REMARK   57  A    between atoms: _161  and  _162
REMARK   58  A    between atoms: _162  and  _163
REMARK   59  A    between atoms: _163  and  _164
REMARK   60  A    between atoms: _168  and  _170
REMARK   61  A    between atoms: _170  and  _171
REMARK   62  A    between atoms: _170  and  _173
REMARK   63  A    between atoms: _173  and  _174
REMARK   64  A    between atoms: _178  and  ZN_290
REMARK   65  A    between atoms: _179  and  _181
REMARK   66  A    between atoms: _181  and  _182
REMARK   67  A    between atoms: _181  and  _184
REMARK   68  A    between atoms: _184  and  _185
REMARK   69  A    between atoms: _188  and  _190
REMARK   70  A    between atoms: _190  and  _191
REMARK   71  A    between atoms: _193  and  _195
REMARK   72  A    between atoms: _195  and  _196
REMARK   73  A    between atoms: _195  and  _198
REMARK   74  A    between atoms: _198  and  _199
REMARK   75  A    between atoms: _199  and  ZN_291
REMARK   76  A    between atoms: _200  and  _202
REMARK   77  A    between atoms: _202  and  _203
REMARK   78  A    between atoms: _202  and  _205
REMARK   79  A    between atoms: _205  and  _206
REMARK   80  A    between atoms: _209  and  _211
REMARK   81  A    between atoms: _211  and  _212
REMARK   82  A    between atoms: _211  and  _214
REMARK   83  A    between atoms: _214  and  _215
REMARK   84  A    between atoms: _215  and  _216
REMARK   85  A    between atoms: _216  and  _217
REMARK   86  A    between atoms: _217  and  _218
REMARK   87  A    between atoms: _222  and  _224
REMARK   88  A    between atoms: _224  and  _225
REMARK   89  A    between atoms: _224  and  _227
REMARK   90  A    between atoms: _227  and  _228
REMARK   91  A    between atoms: _231  and  _233
REMARK   92  A    between atoms: _233  and  _234
REMARK   93  A    between atoms: _236  and  _238
REMARK   94  A    between atoms: _238  and  _239
REMARK   95  A    between atoms: _238  and  _241
REMARK   96  A    between atoms: _241  and  _242
REMARK   97  A    between atoms: _247  and  _248
REMARK   98  A    between atoms: _250  and  _252
REMARK   99  A    between atoms: _252  and  _253
REMARK  100  A    between atoms: _252  and  _255
REMARK  101  A    between atoms: _255  and  _256
REMARK  102  A    between atoms: _259  and  _261
REMARK  103  A    between atoms: _261  and  _262
REMARK  104  A    between atoms: _264  and  _266
REMARK  105  A    between atoms: _266  and  _267
REMARK  106  A    between atoms: _266  and  _269
REMARK  107  A    between atoms: _269  and  _270
REMARK  108  A    between atoms: _270  and  _271
REMARK  109  A    between atoms: _274  and  _276
REMARK  110  A    between atoms: _276  and  _277
REMARK  111  A    between atoms: _279  and  _281
REMARK  112  A    between atoms: _281  and  _282
REMARK  113  A    between atoms: _281  and  _284
REMARK  114  A    between atoms: _284  and  _285
REMARK  115  A    between atoms: _289  and  ZN_291
REMARK                            x       y       z     vdW  Elec       q    Type
REMARK                         _______ _______ _______ _____ _____    ______ ____
ROOT
ATOM      1  CG  TYR A   1     -20.770  45.024  11.674  0.00  0.00    -0.020 A 
ATOM      2  CD2 TYR A   1     -21.859  44.722  12.493  0.00  0.00    -0.001 A 
ATOM      3  CE2 TYR A   1     -21.671  44.214  13.780  0.00  0.00    +0.036 A 
ATOM      4  CZ  TYR A   1     -20.385  44.007  14.251  0.00  0.00    +0.134 A 
ATOM      5  CE1 TYR A   1     -19.288  44.300  13.457  0.00  0.00    +0.036 A 
ATOM      6  CD1 TYR A   1     -19.486  44.807  12.175  0.00  0.00    -0.001 A 
ENDROOT
BRANCH   4   7
ATOM      7  OH  TYR A   1     -20.189  43.514  15.518  0.00  0.00    -0.506 OA
ATOM      8  HH  TYR A   1     -20.619  42.626  15.595  0.00  0.00    +0.292 HD
ENDBRANCH   4   7
BRANCH   1   9
ATOM      9  CB  TYR A   1     -20.976  45.545  10.272  0.00  0.00    +0.051 C 
BRANCH   9  10
ATOM     10  CA  TYR A   1     -20.450  46.961  10.020  0.00  0.00    +0.137 C 
BRANCH  10  11
ATOM     11  N   TYR A   1     -21.379  47.946  10.554  0.00  0.00    -0.239 NA
ATOM     12  H   TYR A   1     -22.399  47.747  10.514  0.00  0.00    +0.142 HD
ENDBRANCH  10  11
BRANCH  10  13
ATOM     13  C   TYR A   1     -20.244  47.136   8.525  0.00  0.00    +0.224 C 
ATOM     14  O   TYR A   1     -21.156  47.528   7.799  0.00  0.00    -0.287 OA
ENDBRANCH  10  13
ENDBRANCH   9  10
ENDBRANCH   1   9
TORSDOF 5
REMARK  Name = ../refined-set-2016/1m2x/1m2x_pocket.pdb
REMARK  115 active torsions:
REMARK  status: ('A' for Active; 'I' for Inactive)
REMARK    1  A    between atoms: _1  and  _3
REMARK    2  A    between atoms: _3  and  _4
REMARK    3  A    between atoms: _3  and  _6
REMARK    4  A    between atoms: _6  and  _7
REMARK    5  A    between atoms: _12  and  _14
REMARK    6  A    between atoms: _14  and  _15
REMARK    7  A    between atoms: _14  and  _17
REMARK    8  A    between atoms: _17  and  _18
REMARK    9  A    between atoms: _24  and  _26
REMARK   10  A    between atoms: _26  and  _27
REMARK   11  A    between atoms: _26  and  _29
REMARK   12  A    between atoms: _29  and  _30
REMARK   13  A    between atoms: _35  and  _36
REMARK   14  A    between atoms: _38  and  _40
REMARK   15  A    between atoms: _40  and  _41
REMARK   16  A    between atoms: _44  and  _46
REMARK   17  A    between atoms: _46  and  _47
REMARK   18  A    between atoms: _46  and  _49
REMARK   19  A    between atoms: _49  and  _50
REMARK   20  A    between atoms: _60  and  _62
REMARK   21  A    between atoms: _73  and  _76
REMARK   22  A    between atoms: _76  and  _77
REMARK   23  A    between atoms: _81  and  _82
REMARK   24  A    between atoms: _90  and  _92
REMARK   25  A    between atoms: _92  and  _93
REMARK   26  A    between atoms: _92  and  _95
REMARK   27  A    between atoms: _95  and  _96
REMARK   28  A    between atoms: _99  and  _101
REMARK   29  A    between atoms: _101  and  _102
REMARK   30  A    between atoms: _101  and  _104
REMARK   31  A    between atoms: _104  and  _105
REMARK   32  A    between atoms: _105  and  _107
REMARK   33  A    between atoms: _107  and  ZN_291
REMARK   34  A    between atoms: _108  and  _110
REMARK   35  A    between atoms: _110  and  _111
REMARK   36  A    between atoms: _110  and  _113
REMARK   37  A    between atoms: _113  and  _114
REMARK   38  A    between atoms: _114  and  _115
REMARK   39  A    between atoms: _115  and  _116
REMARK   40  A    between atoms: _125  and  _127
REMARK   41  A    between atoms: _127  and  _128
REMARK   42  A    between atoms: _131  and  _133
REMARK   43  A    between atoms: _133  and  _134
REMARK   44  A    between atoms: _136  and  _138
REMARK   45  A    between atoms: _138  and  _139
REMARK   46  A    between atoms: _138  and  _141
REMARK   47  A    between atoms: _141  and  _142
REMARK   48  A    between atoms: _145  and  _147
REMARK   49  A    between atoms: _147  and  _148
REMARK   50  A    between atoms: _147  and  _150
REMARK   51  A    between atoms: _150  and  _151
REMARK   52  A    between atoms: _151  and  _152
REMARK   53  A    between atoms: _155  and  _157
REMARK   54  A    between atoms: _157  and  _158
REMARK   55  A    between atoms: _157  and  _160
REMARK   56  A    between atoms: _160  and  _161
REMARK   57  A    between atoms: _161  and  _162
REMARK   58  A    between atoms: _162  and  _163
REMARK   59  A    between atoms: _163  and  _164
REMARK   60  A    between atoms: _168  and  _170
REMARK   61  A    between atoms: _170  and  _171
REMARK   62  A    between atoms: _170  and  _173
REMARK   63  A    between atoms: _173  and  _174
REMARK   64  A    between atoms: _178  and  ZN_290
REMARK   65  A    between atoms: _179  and  _181
REMARK   66  A    between atoms: _181  and  _182
REMARK   67  A    between atoms: _181  and  _184
REMARK   68  A    between atoms: _184  and  _185
REMARK   69  A    between atoms: _188  and  _190
REMARK   70  A    between atoms: _190  and  _191
REMARK   71  A    between atoms: _193  and  _195
REMARK   72  A    between atoms: _195  and  _196
REMARK   73  A    between atoms: _195  and  _198
REMARK   74  A    between atoms: _198  and  _199
REMARK   75  A    between atoms: _199  and  ZN_291
REMARK   76  A    between atoms: _200  and  _202
REMARK   77  A    between atoms: _202  and  _203
REMARK   78  A    between atoms: _202  and  _205
REMARK   79  A    between atoms: _205  and  _206
REMARK   80  A    between atoms: _209  and  _211
REMARK   81  A    between atoms: _211  and  _212
REMARK   82  A    between atoms: _211  and  _214
REMARK   83  A    between atoms: _214  and  _215
REMARK   84  A    between atoms: _215  and  _216
REMARK   85  A    between atoms: _216  and  _217
REMARK   86  A    between atoms: _217  and  _218
REMARK   87  A    between atoms: _222  and  _224
REMARK   88  A    between atoms: _224  and  _225
REMARK   89  A    between atoms: _224  and  _227
REMARK   90  A    between atoms: _227  and  _228
REMARK   91  A    between atoms: _231  and  _233
REMARK   92  A    between atoms: _233  and  _234
REMARK   93  A    between atoms: _236  and  _238
REMARK   94  A    between atoms: _238  and  _239
REMARK   95  A    between atoms: _238  and  _241
REMARK   96  A    between atoms: _241  and  _242
REMARK   97  A    between atoms: _247  and  _248
REMARK   98  A    between atoms: _250  and  _252
REMARK   99  A    between atoms: _252  and  _253
REMARK  100  A    between atoms: _252  and  _255
REMARK  101  A    between atoms: _255  and  _256
REMARK  102  A    between atoms: _259  and  _261
REMARK  103  A    between atoms: _261  and  _262
REMARK  104  A    between atoms: _264  and  _266
REMARK  105  A    between atoms: _266  and  _267
REMARK  106  A    between atoms: _266  and  _269
REMARK  107  A    between atoms: _269  and  _270
REMARK  108  A    between atoms: _270  and  _271
REMARK  109  A    between atoms: _274  and  _276
REMARK  110  A    between atoms: _276  and  _277
REMARK  111  A    between atoms: _279  and  _281
REMARK  112  A    between atoms: _281  and  _282
REMARK  113  A    between atoms: _281  and  _284
REMARK  114  A    between atoms: _284  and  _285
REMARK  115  A    between atoms: _289  and  ZN_291
REMARK                            x       y       z     vdW  Elec       q    Type
REMARK                         _______ _______ _______ _____ _____    ______ ____
ROOT
ATOM      1  CA  ALA A   1     -18.796  43.912   4.326  0.00  0.00    +0.133 C 
ATOM      2  CB  ALA A   1     -20.153  43.346   3.923  0.00  0.00    +0.027 C 
ENDROOT
BRANCH   1   3
ATOM      3  N   ALA A   1     -18.942  45.236   4.923  0.00  0.00    -0.239 NA
ATOM      4  H   ALA A   1     -19.349  46.004   4.351  0.00  0.00    +0.142 HD
ENDBRANCH   1   3
BRANCH   1   5
ATOM      5  C   ALA A   1     -17.925  44.115   3.094  0.00  0.00    +0.224 C 
ATOM      6  O   ALA A   1     -18.237  44.955   2.248  0.00  0.00    -0.287 OA
ENDBRANCH   1   5
TORSDOF 2
REMARK  Name = ../refined-set-2016/1m2x/1m2x_pocket.pdb
REMARK  115 active torsions:
REMARK  status: ('A' for Active; 'I' for Inactive)
REMARK    1  A    between atoms: _1  and  _3
REMARK    2  A    between atoms: _3  and  _4
REMARK    3  A    between atoms: _3  and  _6
REMARK    4  A    between atoms: _6  and  _7
REMARK    5  A    between atoms: _12  and  _14
REMARK    6  A    between atoms: _14  and  _15
REMARK    7  A    between atoms: _14  and  _17
REMARK    8  A    between atoms: _17  and  _18
REMARK    9  A    between atoms: _24  and  _26
REMARK   10  A    between atoms: _26  and  _27
REMARK   11  A    between atoms: _26  and  _29
REMARK   12  A    between atoms: _29  and  _30
REMARK   13  A    between atoms: _35  and  _36
REMARK   14  A    between atoms: _38  and  _40
REMARK   15  A    between atoms: _40  and  _41
REMARK   16  A    between atoms: _44  and  _46
REMARK   17  A    between atoms: _46  and  _47
REMARK   18  A    between atoms: _46  and  _49
REMARK   19  A    between atoms: _49  and  _50
REMARK   20  A    between atoms: _60  and  _62
REMARK   21  A    between atoms: _73  and  _76
REMARK   22  A    between atoms: _76  and  _77
REMARK   23  A    between atoms: _81  and  _82
REMARK   24  A    between atoms: _90  and  _92
REMARK   25  A    between atoms: _92  and  _93
REMARK   26  A    between atoms: _92  and  _95
REMARK   27  A    between atoms: _95  and  _96
REMARK   28  A    between atoms: _99  and  _101
REMARK   29  A    between atoms: _101  and  _102
REMARK   30  A    between atoms: _101  and  _104
REMARK   31  A    between atoms: _104  and  _105
REMARK   32  A    between atoms: _105  and  _107
REMARK   33  A    between atoms: _107  and  ZN_291
REMARK   34  A    between atoms: _108  and  _110
REMARK   35  A    between atoms: _110  and  _111
REMARK   36  A    between atoms: _110  and  _113
REMARK   37  A    between atoms: _113  and  _114
REMARK   38  A    between atoms: _114  and  _115
REMARK   39  A    between atoms: _115  and  _116
REMARK   40  A    between atoms: _125  and  _127
REMARK   41  A    between atoms: _127  and  _128
REMARK   42  A    between atoms: _131  and  _133
REMARK   43  A    between atoms: _133  and  _134
REMARK   44  A    between atoms: _136  and  _138
REMARK   45  A    between atoms: _138  and  _139
REMARK   46  A    between atoms: _138  and  _141
REMARK   47  A    between atoms: _141  and  _142
REMARK   48  A    between atoms: _145  and  _147
REMARK   49  A    between atoms: _147  and  _148
REMARK   50  A    between atoms: _147  and  _150
REMARK   51  A    between atoms: _150  and  _151
REMARK   52  A    between atoms: _151  and  _152
REMARK   53  A    between atoms: _155  and  _157
REMARK   54  A    between atoms: _157  and  _158
REMARK   55  A    between atoms: _157  and  _160
REMARK   56  A    between atoms: _160  and  _161
REMARK   57  A    between atoms: _161  and  _162
REMARK   58  A    between atoms: _162  and  _163
REMARK   59  A    between atoms: _163  and  _164
REMARK   60  A    between atoms: _168  and  _170
REMARK   61  A    between atoms: _170  and  _171
REMARK   62  A    between atoms: _170  and  _173
REMARK   63  A    between atoms: _173  and  _174
REMARK   64  A    between atoms: _178  and  ZN_290
REMARK   65  A    between atoms: _179  and  _181
REMARK   66  A    between atoms: _181  and  _182
REMARK   67  A    between atoms: _181  and  _184
REMARK   68  A    between atoms: _184  and  _185
REMARK   69  A    between atoms: _188  and  _190
REMARK   70  A    between atoms: _190  and  _191
REMARK   71  A    between atoms: _193  and  _195
REMARK   72  A    between atoms: _195  and  _196
REMARK   73  A    between atoms: _195  and  _198
REMARK   74  A    between atoms: _198  and  _199
REMARK   75  A    between atoms: _199  and  ZN_291
REMARK   76  A    between atoms: _200  and  _202
REMARK   77  A    between atoms: _202  and  _203
REMARK   78  A    between atoms: _202  and  _205
REMARK   79  A    between atoms: _205  and  _206
REMARK   80  A    between atoms: _209  and  _211
REMARK   81  A    between atoms: _211  and  _212
REMARK   82  A    between atoms: _211  and  _214
REMARK   83  A    between atoms: _214  and  _215
REMARK   84  A    between atoms: _215  and  _216
REMARK   85  A    between atoms: _216  and  _217
REMARK   86  A    between atoms: _217  and  _218
REMARK   87  A    between atoms: _222  and  _224
REMARK   88  A    between atoms: _224  and  _225
REMARK   89  A    between atoms: _224  and  _227
REMARK   90  A    between atoms: _227  and  _228
REMARK   91  A    between atoms: _231  and  _233
REMARK   92  A    between atoms: _233  and  _234
REMARK   93  A    between atoms: _236  and  _238
REMARK   94  A    between atoms: _238  and  _239
REMARK   95  A    between atoms: _238  and  _241
REMARK   96  A    between atoms: _241  and  _242
REMARK   97  A    between atoms: _247  and  _248
REMARK   98  A    between atoms: _250  and  _252
REMARK   99  A    between atoms: _252  and  _253
REMARK  100  A    between atoms: _252  and  _255
REMARK  101  A    between atoms: _255  and  _256
REMARK  102  A    between atoms: _259  and  _261
REMARK  103  A    between atoms: _261  and  _262
REMARK  104  A    between atoms: _264  and  _266
REMARK  105  A    between atoms: _266  and  _267
REMARK  106  A    between atoms: _266  and  _269
REMARK  107  A    between atoms: _269  and  _270
REMARK  108  A    between atoms: _270  and  _271
REMARK  109  A    between atoms: _274  and  _276
REMARK  110  A    between atoms: _276  and  _277
REMARK  111  A    between atoms: _279  and  _281
REMARK  112  A    between atoms: _281  and  _282
REMARK  113  A    between atoms: _281  and  _284
REMARK  114  A    between atoms: _284  and  _285
REMARK  115  A    between atoms: _289  and  ZN_291
REMARK                            x       y       z     vdW  Elec       q    Type
REMARK                         _______ _______ _______ _____ _____    ______ ____
ROOT
ATOM      1  CG  TRP A   1     -24.356  42.931   4.626  0.00  0.00    -0.002 A 
ATOM      2  CD2 TRP A   1     -23.682  42.985   5.885  0.00  0.00    +0.013 A 
ATOM      3  CE2 TRP A   1     -24.278  42.017   6.721  0.00  0.00    +0.056 A 
ATOM      4  CZ2 TRP A   1     -23.856  41.802   8.037  0.00  0.00    +0.017 A 
ATOM      5  CH2 TRP A   1     -22.824  42.576   8.506  0.00  0.00    +0.001 A 
ATOM      6  CZ3 TRP A   1     -22.211  43.549   7.700  0.00  0.00    +0.000 A 
ATOM      7  NE1 TRP A   1     -25.268  41.403   5.998  0.00  0.00    -0.352 N 
ATOM      8  HE1 TRP A   1     -25.887  40.642   6.344  0.00  0.00    +0.166 HD
ATOM      9  CE3 TRP A   1     -22.630  43.762   6.390  0.00  0.00    +0.001 A 
ATOM     10  CD1 TRP A   1     -25.309  41.959   4.740  0.00  0.00    +0.068 A 
ENDROOT
BRANCH   1  11
ATOM     11  CB  TRP A   1     -24.055  43.772   3.425  0.00  0.00    +0.053 C 
BRANCH  11  12
ATOM     12  CA  TRP A   1     -24.941  43.499   2.211  0.00  0.00    +0.137 C 
BRANCH  12  13
ATOM     13  N   TRP A   1     -24.250  43.922   1.001  0.00  0.00    -0.239 NA
ATOM     14  H   TRP A   1     -23.544  44.683   1.055  0.00  0.00    +0.142 HD
ENDBRANCH  12  13
BRANCH  12  15
ATOM     15  C   TRP A   1     -26.254  44.267   2.314  0.00  0.00    +0.224 C 
ATOM     16  O   TRP A   1     -26.307  45.358   2.881  0.00  0.00    -0.287 OA
ENDBRANCH  12  15
ENDBRANCH  11  12
ENDBRANCH   1  11
TORSDOF 4
REMARK  Name = ../refined-set-2016/1m2x/1m2x_pocket.pdb
REMARK  115 active torsions:
REMARK  status: ('A' for Active; 'I' for Inactive)
REMARK    1  A    between atoms: _1  and  _3
REMARK    2  A    between atoms: _3  and  _4
REMARK    3  A    between atoms: _3  and  _6
REMARK    4  A    between atoms: _6  and  _7
REMARK    5  A    between atoms: _12  and  _14
REMARK    6  A    between atoms: _14  and  _15
REMARK    7  A    between atoms: _14  and  _17
REMARK    8  A    between atoms: _17  and  _18
REMARK    9  A    between atoms: _24  and  _26
REMARK   10  A    between atoms: _26  and  _27
REMARK   11  A    between atoms: _26  and  _29
REMARK   12  A    between atoms: _29  and  _30
REMARK   13  A    between atoms: _35  and  _36
REMARK   14  A    between atoms: _38  and  _40
REMARK   15  A    between atoms: _40  and  _41
REMARK   16  A    between atoms: _44  and  _46
REMARK   17  A    between atoms: _46  and  _47
REMARK   18  A    between atoms: _46  and  _49
REMARK   19  A    between atoms: _49  and  _50
REMARK   20  A    between atoms: _60  and  _62
REMARK   21  A    between atoms: _73  and  _76
REMARK   22  A    between atoms: _76  and  _77
REMARK   23  A    between atoms: _81  and  _82
REMARK   24  A    between atoms: _90  and  _92
REMARK   25  A    between atoms: _92  and  _93
REMARK   26  A    between atoms: _92  and  _95
REMARK   27  A    between atoms: _95  and  _96
REMARK   28  A    between atoms: _99  and  _101
REMARK   29  A    between atoms: _101  and  _102
REMARK   30  A    between atoms: _101  and  _104
REMARK   31  A    between atoms: _104  and  _105
REMARK   32  A    between atoms: _105  and  _107
REMARK   33  A    between atoms: _107  and  ZN_291
REMARK   34  A    between atoms: _108  and  _110
REMARK   35  A    between atoms: _110  and  _111
REMARK   36  A    between atoms: _110  and  _113
REMARK   37  A    between atoms: _113  and  _114
REMARK   38  A    between atoms: _114  and  _115
REMARK   39  A    between atoms: _115  and  _116
REMARK   40  A    between atoms: _125  and  _127
REMARK   41  A    between atoms: _127  and  _128
REMARK   42  A    between atoms: _131  and  _133
REMARK   43  A    between atoms: _133  and  _134
REMARK   44  A    between atoms: _136  and  _138
REMARK   45  A    between atoms: _138  and  _139
REMARK   46  A    between atoms: _138  and  _141
REMARK   47  A    between atoms: _141  and  _142
REMARK   48  A    between atoms: _145  and  _147
REMARK   49  A    between atoms: _147  and  _148
REMARK   50  A    between atoms: _147  and  _150
REMARK   51  A    between atoms: _150  and  _151
REMARK   52  A    between atoms: _151  and  _152
REMARK   53  A    between atoms: _155  and  _157
REMARK   54  A    between atoms: _157  and  _158
REMARK   55  A    between atoms: _157  and  _160
REMARK   56  A    between atoms: _160  and  _161
REMARK   57  A    between atoms: _161  and  _162
REMARK   58  A    between atoms: _162  and  _163
REMARK   59  A    between atoms: _163  and  _164
REMARK   60  A    between atoms: _168  and  _170
REMARK   61  A    between atoms: _170  and  _171
REMARK   62  A    between atoms: _170  and  _173
REMARK   63  A    between atoms: _173  and  _174
REMARK   64  A    between atoms: _178  and  ZN_290
REMARK   65  A    between atoms: _179  and  _181
REMARK   66  A    between atoms: _181  and  _182
REMARK   67  A    between atoms: _181  and  _184
REMARK   68  A    between atoms: _184  and  _185
REMARK   69  A    between atoms: _188  and  _190
REMARK   70  A    between atoms: _190  and  _191
REMARK   71  A    between atoms: _193  and  _195
REMARK   72  A    between atoms: _195  and  _196
REMARK   73  A    between atoms: _195  and  _198
REMARK   74  A    between atoms: _198  and  _199
REMARK   75  A    between atoms: _199  and  ZN_291
REMARK   76  A    between atoms: _200  and  _202
REMARK   77  A    between atoms: _202  and  _203
REMARK   78  A    between atoms: _202  and  _205
REMARK   79  A    between atoms: _205  and  _206
REMARK   80  A    between atoms: _209  and  _211
REMARK   81  A    between atoms: _211  and  _212
REMARK   82  A    between atoms: _211  and  _214
REMARK   83  A    between atoms: _214  and  _215
REMARK   84  A    between atoms: _215  and  _216
REMARK   85  A    between atoms: _216  and  _217
REMARK   86  A    between atoms: _217  and  _218
REMARK   87  A    between atoms: _222  and  _224
REMARK   88  A    between atoms: _224  and  _225
REMARK   89  A    between atoms: _224  and  _227
REMARK   90  A    between atoms: _227  and  _228
REMARK   91  A    between atoms: _231  and  _233
REMARK   92  A    between atoms: _233  and  _234
REMARK   93  A    between atoms: _236  and  _238
REMARK   94  A    between atoms: _238  and  _239
REMARK   95  A    between atoms: _238  and  _241
REMARK   96  A    between atoms: _241  and  _242
REMARK   97  A    between atoms: _247  and  _248
REMARK   98  A    between atoms: _250  and  _252
REMARK   99  A    between atoms: _252  and  _253
REMARK  100  A    between atoms: _252  and  _255
REMARK  101  A    between atoms: _255  and  _256
REMARK  102  A    between atoms: _259  and  _261
REMARK  103  A    between atoms: _261  and  _262
REMARK  104  A    between atoms: _264  and  _266
REMARK  105  A    between atoms: _266  and  _267
REMARK  106  A    between atoms: _266  and  _269
REMARK  107  A    between atoms: _269  and  _270
REMARK  108  A    between atoms: _270  and  _271
REMARK  109  A    between atoms: _274  and  _276
REMARK  110  A    between atoms: _276  and  _277
REMARK  111  A    between atoms: _279  and  _281
REMARK  112  A    between atoms: _281  and  _282
REMARK  113  A    between atoms: _281  and  _284
REMARK  114  A    between atoms: _284  and  _285
REMARK  115  A    between atoms: _289  and  ZN_291
REMARK                            x       y       z     vdW  Elec       q    Type
REMARK                         _______ _______ _______ _____ _____    ______ ____
ROOT
ATOM      1  C   UNK A   5     -23.559  39.155   2.699  0.00  0.00    +0.000 C 
ENDROOT
BRANCH   1   3
ATOM      2  C   ASP A   4     -25.791  38.219   2.657  0.00  0.00    +0.000 C 
ATOM      3  N   UNK A   5     -24.617  38.334   3.269  0.00  0.00    +0.000 N 
ATOM      4  H   UNK A   5     -24.452  37.832   4.165  0.00  0.00    +0.000 HD
ATOM      5  O   ASP A   4     -26.056  38.797   1.601  0.00  0.00    +0.000 OA
BRANCH   2   6
ATOM      6  CA  ASP A   4     -26.839  37.345   3.331  0.00  0.00    +0.000 C 
BRANCH   6   8
ATOM      7  C   UNK A   3     -25.465  35.308   3.668  0.00  0.00    +0.000 C 
ATOM      8  N   ASP A   4     -26.348  36.204   4.111  0.00  0.00    +0.000 N 
ATOM      9  H   ASP A   4     -26.714  36.085   5.077  0.00  0.00    +0.000 HD
ATOM     10  O   UNK A   3     -24.942  35.349   2.557  0.00  0.00    +0.000 OA
BRANCH   7  23
ATOM     11  C   UNK A   1     -21.003  30.861   2.071  0.00  0.00    +0.000 C 
ATOM     12  C   UNK A   1     -20.341  30.895   3.480  0.00  0.00    +0.000 C 
ATOM     13  C   UNK A   1     -20.474  32.176   4.241  0.00  0.00    +0.000 A 
ATOM     14  C   UNK A   1     -21.328  32.536   5.228  0.00  0.00    +0.000 A 
ATOM     15  N   UNK A   1     -20.903  33.750   5.709  0.00  0.00    +0.000 N 
ATOM     16 ZN   UNK A   1     -21.432  34.601   7.633  0.00  0.00    +0.000 Zn
ATOM     17  N   UNK A   3     -23.210  33.643   7.857  0.00  0.00    +0.000 N 
ATOM     18  C   UNK A   3     -23.424  32.656   8.710  0.00  0.00    +0.000 A 
ATOM     19  N   UNK A   3     -24.541  32.043   8.365  0.00  0.00    +0.000 NA
ATOM     20  C   UNK A   3     -25.060  32.658   7.251  0.00  0.00    +0.000 A 
ATOM     21  C   UNK A   3     -24.221  33.670   6.922  0.00  0.00    +0.000 A 
ATOM     22  C   UNK A   3     -24.261  34.643   5.783  0.00  0.00    +0.000 C 
ATOM     23  C   UNK A   3     -25.155  34.179   4.638  0.00  0.00    +0.000 C 
ATOM     24  N   UNK A   3     -24.596  32.964   4.061  0.00  0.00    +0.000 N 
ATOM     25  H   UNK A   3     -23.611  32.698   4.260  0.00  0.00    +0.000 HD
ATOM     26  C   UNK A   2     -25.349  32.197   3.280  0.00  0.00    +0.000 C 
ATOM     27  O   UNK A   2     -26.505  32.502   2.968  0.00  0.00    +0.000 OA
ATOM     28  C   UNK A   2     -24.751  30.905   2.757  0.00  0.00    +0.000 C 
ATOM     29  N   UNK A   2     -23.312  30.651   2.822  0.00  0.00    +0.000 N 
ATOM     30  H   UNK A   2     -22.947  29.957   3.506  0.00  0.00    +0.000 HD
ATOM     31  C   UNK A   1     -19.831  34.127   5.036  0.00  0.00    +0.000 A 
ATOM     32  N   UNK A   1     -19.554  33.196   4.141  0.00  0.00    +0.000 NA
ATOM     33  C   UNK A   1     -22.463  31.288   2.026  0.00  0.00    +0.000 C 
ATOM     34  O   UNK A   1     -22.822  32.159   1.237  0.00  0.00    +0.000 OA
BRANCH  16  35
ATOM     35  N   UNK A   1     -19.941  33.917   8.878  0.00  0.00    +0.000 N 
ATOM     36  C   UNK A   1     -19.617  34.367  10.078  0.00  0.00    +0.000 A 
ATOM     37  N   UNK A   1     -18.499  33.773  10.457  0.00  0.00    +0.000 NA
ATOM     38  C   UNK A   1     -18.084  32.910   9.464  0.00  0.00    +0.000 A 
ATOM     39  C   UNK A   1     -18.999  33.007   8.472  0.00  0.00    +0.000 A 
BRANCH  38  40
ATOM     40  C   UNK A   1     -16.848  32.080   9.576  0.00  0.00    +0.000 C 
BRANCH  40  41
ATOM     41  C   UNK A   1     -16.954  30.942  10.590  0.00  0.00    +0.000 C 
BRANCH  41  42
ATOM     42  C   UNK A   1     -18.260  30.158  10.409  0.00  0.00    +0.000 C 
ATOM     43  O   UNK A   1     -19.233  30.357  11.142  0.00  0.00    +0.000 OA
ATOM     44  N   UNK A   2     -18.268  29.281   9.409  0.00  0.00    +0.000 N 
ATOM     45  H   UNK A   2     -17.431  29.227   8.794  0.00  0.00    +0.000 HD
BRANCH  44  46
ATOM     46  C   UNK A   2     -19.394  28.388   9.129  0.00  0.00    +0.000 C 
BRANCH  46  47
ATOM     47  C   UNK A   2     -18.779  27.101   8.605  0.00  0.00    +0.000 C 
ATOM     48  O   UNK A   2     -17.568  27.036   8.370  0.00  0.00    +0.000 OA
ENDBRANCH  46  47
BRANCH  46  49
ATOM     49  C   UNK A   2     -20.356  28.922   8.039  0.00  0.00    +0.000 C 
ATOM     50  C   UNK A   2     -21.087  30.163   8.520  0.00  0.00    +0.000 C 
BRANCH  49  51
ATOM     51  O   UNK A   2     -19.618  29.203   6.844  0.00  0.00    +0.000 OA
ATOM     52  H   UNK A   2     -20.235  29.544   6.149  0.00  0.00    +0.000 HD
ENDBRANCH  49  51
ENDBRANCH  46  49
ENDBRANCH  44  46
ENDBRANCH  41  42
BRANCH  41  53
ATOM     53  N   UNK A   1     -15.862  30.006  10.364  0.00  0.00    +0.000 NA
ATOM     54  H   UNK A   1     -15.170  30.207   9.614  0.00  0.00    +0.000 HD
ENDBRANCH  41  53
ENDBRANCH  40  41
ENDBRANCH  38  40
ENDBRANCH  16  35
BRANCH  11  55
ATOM     55  N   UNK A   1     -20.273  31.569   1.014  0.00  0.00    +0.000 NA
ATOM     56  H   UNK A   1     -20.800  32.258   0.441  0.00  0.00    +0.000 HD
ENDBRANCH  11  55
BRANCH  28  57
ATOM     57  C   UNK A   2     -25.504  29.751   3.423  0.00  0.00    +0.000 C 
BRANCH  57  58
ATOM     58  O   UNK A   2     -25.545  29.927   4.828  0.00  0.00    +0.000 OA
ATOM     59  H   UNK A   2     -24.621  29.955   5.183  0.00  0.00    +0.000 HD
ENDBRANCH  57  58
ENDBRANCH  28  57
ENDBRANCH   7  23
ENDBRANCH   6   8
BRANCH   6  60
ATOM     60  CB  ASP A   4     -27.718  38.242   4.210  0.00  0.00    +0.000 C 
BRANCH  60  61
ATOM     61  CG  ASP A   4     -29.034  37.592   4.597  0.00  0.00    +0.000 C 
ATOM     62  OD2 ASP A   4     -29.748  38.175   5.443  0.00  0.00    +0.000 OA
ATOM     63  OD1 ASP A   4     -29.364  36.512   4.061  0.00  0.00    +0.000 OA
ENDBRANCH  60  61
ENDBRANCH   6  60
ENDBRANCH   2   6
ENDBRANCH   1   3
BRANCH   1  64
ATOM     64  C   UNK A   5     -22.732  38.423   1.648  0.00  0.00    +0.000 C 
ATOM     65  N   ARG A   6     -23.088  37.169   1.370  0.00  0.00    +0.000 N 
ATOM     66  H   ARG A   6     -23.902  36.750   1.863  0.00  0.00    +0.000 HD
ATOM     67  O   UNK A   5     -21.800  38.991   1.081  0.00  0.00    +0.000 OA
BRANCH  65  68
ATOM     68  CA  ARG A   6     -22.359  36.371   0.387  0.00  0.00    +0.000 C 
BRANCH  68  69
ATOM     69  C   ARG A   6     -23.273  35.751  -0.668  0.00  0.00    +0.000 C 
ATOM     70  N   ALA A   7     -24.380  35.159  -0.224  0.00  0.00    +0.000 N 
ATOM     71  H   ALA A   7     -24.584  35.165   0.796  0.00  0.00    +0.000 HD
ATOM     72  O   ARG A   6     -22.980  35.806  -1.863  0.00  0.00    +0.000 OA
BRANCH  70  73
ATOM     73  CA  ALA A   7     -25.316  34.500  -1.136  0.00  0.00    +0.000 C 
ATOM     74  CB  ALA A   7     -25.630  33.092  -0.617  0.00  0.00    +0.000 C 
BRANCH  73  75
ATOM     75  C   ALA A   7     -26.619  35.268  -1.355  0.00  0.00    +0.000 C 
ATOM     76  N   GLY A   8     -26.766  36.400  -0.680  0.00  0.00    +0.000 N 
ATOM     77  H   GLY A   8     -26.003  36.732  -0.057  0.00  0.00    +0.000 HD
ATOM     78  O   ALA A   7     -27.472  34.842  -2.136  0.00  0.00    +0.000 OA
BRANCH  76  79
ATOM     79  CA  GLY A   8     -27.986  37.180  -0.805  0.00  0.00    +0.000 C 
BRANCH  79  80
ATOM     80  C   GLY A   8     -28.339  37.661  -2.199  0.00  0.00    +0.000 C 
ATOM     81  O   GLY A   8     -29.510  37.930  -2.490  0.00  0.00    +0.000 OA
ENDBRANCH  79  80
ENDBRANCH  76  79
ENDBRANCH  73  75
ENDBRANCH  70  73
ENDBRANCH  68  69
BRANCH  68  82
ATOM     82  CB  ARG A   6     -21.585  35.252   1.092  0.00  0.00    +0.000 C 
BRANCH  82  83
ATOM     83  CG  ARG A   6     -20.743  35.724   2.275  0.00  0.00    +0.000 C 
BRANCH  83  84
ATOM     84  CD  ARG A   6     -19.645  36.680   1.849  0.00  0.00    +0.000 C 
BRANCH  84  85
ATOM     85  NE  ARG A   6     -19.373  37.673   2.883  0.00  0.00    +0.330 N 
ATOM     86  HE  ARG A   6     -19.884  37.586   3.785  0.00  0.00    +0.000 HD
ATOM     87  CZ  ARG A   6     -18.517  38.682   2.751  0.00  0.00    +0.000 C 
ATOM     88  NH2 ARG A   6     -18.375  39.559   3.735  0.00  0.00    +0.330 N 
ATOM     89 HH21 ARG A   6     -18.932  39.457   4.607  0.00  0.00    +0.000 HD
ATOM     90 HH22 ARG A   6     -17.706  40.349   3.635  0.00  0.00    +0.000 HD
ATOM     91  NH1 ARG A   6     -17.833  38.837   1.628  0.00  0.00    +0.330 N 
ATOM     92 HH11 ARG A   6     -17.165  39.628   1.531  0.00  0.00    +0.000 HD
ATOM     93 HH12 ARG A   6     -17.964  38.168   0.843  0.00  0.00    +0.000 HD
ENDBRANCH  84  85
ENDBRANCH  83  84
ENDBRANCH  82  83
ENDBRANCH  68  82
ENDBRANCH  65  68
ENDBRANCH   1  64
BRANCH   1  94
ATOM     94  C   UNK A   5     -22.649  39.702   3.813  0.00  0.00    +0.000 C 
BRANCH  94  95
ATOM     95  C   UNK A   5     -21.990  38.612   4.643  0.00  0.00    +0.000 C 
ATOM     96  O   UNK A   5     -22.508  37.474   4.706  0.00  0.00    +0.000 OA
BRANCH  95  97
ATOM     97  O   UNK A   5     -20.948  38.915   5.258  0.00  0.00    +0.000 OA
BRANCH  97  98
ATOM     98 ZN   UNK A   2     -20.063  37.968   6.957  0.00  0.00    +0.000 Zn
BRANCH  98  99
ATOM     99  N   UNK A   2     -19.445  39.840   7.675  0.00  0.00    +0.000 N 
ATOM    100  C   UNK A   2     -18.199  40.017   8.225  0.00  0.00    +0.000 A 
ATOM    101  C   UNK A   2     -17.919  41.339   8.158  0.00  0.00    +0.000 A 
ATOM    102  N   UNK A   2     -19.011  41.934   7.568  0.00  0.00    +0.000 NA
ATOM    103  C   UNK A   2     -19.914  41.011   7.286  0.00  0.00    +0.000 A 
BRANCH 101 104
ATOM    104  C   UNK A   2     -16.708  42.111   8.570  0.00  0.00    +0.000 C 
BRANCH 104 105
ATOM    105  C   UNK A   2     -15.831  42.555   7.395  0.00  0.00    +0.000 C 
BRANCH 105 106
ATOM    106  N   UNK A   2     -15.184  41.397   6.790  0.00  0.00    +0.000 N 
ATOM    107  H   UNK A   2     -14.387  40.941   7.279  0.00  0.00    +0.000 HD
ATOM    108  C   UNK A   1     -15.598  40.916   5.622  0.00  0.00    +0.000 C 
ATOM    109  O   UNK A   1     -16.523  41.425   4.986  0.00  0.00    +0.000 OA
BRANCH 108 110
ATOM    110  C   UNK A   1     -14.878  39.694   5.084  0.00  0.00    +0.000 C 
BRANCH 110 111
ATOM    111  N   UNK A   1     -13.487  39.540   5.474  0.00  0.00    +0.000 NA
ATOM    112  H   UNK A   1     -13.206  38.735   6.070  0.00  0.00    +0.000 HD
ENDBRANCH 110 111
ENDBRANCH 108 110
ENDBRANCH 105 106
BRANCH 105 113
ATOM    113  C   UNK A   2     -14.862  43.617   7.877  0.00  0.00    +0.000 C 
ATOM    114  O   UNK A   2     -13.695  43.337   8.156  0.00  0.00    +0.000 OA
ENDBRANCH 105 113
ENDBRANCH 104 105
ENDBRANCH 101 104
ENDBRANCH  98  99
BRANCH  98 115
ATOM    115  S   UNK A   2     -18.151  37.017   6.073  0.00  0.00    +0.000 S 
BRANCH 115 116
ATOM    116  C   UNK A   2     -17.325  35.778   7.133  0.00  0.00    +0.000 C 
BRANCH 116 117
ATOM    117  C   UNK A   2     -15.822  35.855   6.896  0.00  0.00    +0.000 C 
BRANCH 117 118
ATOM    118  C   UNK A   2     -15.035  34.934   7.823  0.00  0.00    +0.000 C 
ATOM    119  O   UNK A   2     -15.124  35.068   9.046  0.00  0.00    +0.000 OA
ATOM    120  N   UNK A   3     -14.240  34.027   7.259  0.00  0.00    +0.000 N 
ATOM    121  H   UNK A   3     -14.205  33.946   6.223  0.00  0.00    +0.000 HD
BRANCH 120 122
ATOM    122  C   UNK A   3     -13.416  33.144   8.083  0.00  0.00    +0.000 C 
BRANCH 122 123
ATOM    123  C   UNK A   3     -12.960  31.886   7.293  0.00  0.00    +0.000 C 
ATOM    124  C   UNK A   3     -11.956  32.266   6.215  0.00  0.00    +0.000 C 
BRANCH 123 125
ATOM    125  C   UNK A   3     -12.333  30.866   8.245  0.00  0.00    +0.000 C 
ATOM    126  C   UNK A   3     -12.045  29.518   7.592  0.00  0.00    +0.000 C 
ENDBRANCH 123 125
ENDBRANCH 122 123
BRANCH 122 127
ATOM    127  C   UNK A   3     -12.204  33.954   8.574  0.00  0.00    +0.000 C 
ATOM    128  O   UNK A   3     -11.504  33.550   9.501  0.00  0.00    +0.000 OA
ENDBRANCH 122 127
ENDBRANCH 120 122
ENDBRANCH 117 118
BRANCH 117 129
ATOM    129  N   UNK A   2     -15.610  35.782   5.470  0.00  0.00    +0.000 N 
ATOM    130  C   UNK A   1     -14.500  36.254   4.933  0.00  0.00    +0.000 C 
ATOM    131  O   UNK A   1     -13.552  36.648   5.613  0.00  0.00    +0.000 OA
ATOM    132  H   UNK A   2     -16.337  35.355   4.861  0.00  0.00    +0.000 HD
BRANCH 130 133
ATOM    133  C   UNK A   1     -14.436  36.219   3.422  0.00  0.00    +0.000 C 
BRANCH 133 134
ATOM    134  N   UNK A   1     -13.064  36.345   2.996  0.00  0.00    +0.000 NA
ATOM    135  H   UNK A   1     -12.729  37.207   2.520  0.00  0.00    +0.000 HD
ENDBRANCH 133 134
ENDBRANCH 130 133
ENDBRANCH 117 129
ENDBRANCH 116 117
ENDBRANCH 115 116
ENDBRANCH  98 115
ENDBRANCH  97  98
ENDBRANCH  95  97
ENDBRANCH  94  95
ENDBRANCH   1  94
TORSDOF 51
REMARK  Name = ../refined-set-2016/1m2x/1m2x_pocket.pdb
REMARK  115 active torsions:
REMARK  status: ('A' for Active; 'I' for Inactive)
REMARK    1  A    between atoms: _1  and  _3
REMARK    2  A    between atoms: _3  and  _4
REMARK    3  A    between atoms: _3  and  _6
REMARK    4  A    between atoms: _6  and  _7
REMARK    5  A    between atoms: _12  and  _14
REMARK    6  A    between atoms: _14  and  _15
REMARK    7  A    between atoms: _14  and  _17
REMARK    8  A    between atoms: _17  and  _18
REMARK    9  A    between atoms: _24  and  _26
REMARK   10  A    between atoms: _26  and  _27
REMARK   11  A    between atoms: _26  and  _29
REMARK   12  A    between atoms: _29  and  _30
REMARK   13  A    between atoms: _35  and  _36
REMARK   14  A    between atoms: _38  and  _40
REMARK   15  A    between atoms: _40  and  _41
REMARK   16  A    between atoms: _44  and  _46
REMARK   17  A    between atoms: _46  and  _47
REMARK   18  A    between atoms: _46  and  _49
REMARK   19  A    between atoms: _49  and  _50
REMARK   20  A    between atoms: _60  and  _62
REMARK   21  A    between atoms: _73  and  _76
REMARK   22  A    between atoms: _76  and  _77
REMARK   23  A    between atoms: _81  and  _82
REMARK   24  A    between atoms: _90  and  _92
REMARK   25  A    between atoms: _92  and  _93
REMARK   26  A    between atoms: _92  and  _95
REMARK   27  A    between atoms: _95  and  _96
REMARK   28  A    between atoms: _99  and  _101
REMARK   29  A    between atoms: _101  and  _102
REMARK   30  A    between atoms: _101  and  _104
REMARK   31  A    between atoms: _104  and  _105
REMARK   32  A    between atoms: _105  and  _107
REMARK   33  A    between atoms: _107  and  ZN_291
REMARK   34  A    between atoms: _108  and  _110
REMARK   35  A    between atoms: _110  and  _111
REMARK   36  A    between atoms: _110  and  _113
REMARK   37  A    between atoms: _113  and  _114
REMARK   38  A    between atoms: _114  and  _115
REMARK   39  A    between atoms: _115  and  _116
REMARK   40  A    between atoms: _125  and  _127
REMARK   41  A    between atoms: _127  and  _128
REMARK   42  A    between atoms: _131  and  _133
REMARK   43  A    between atoms: _133  and  _134
REMARK   44  A    between atoms: _136  and  _138
REMARK   45  A    between atoms: _138  and  _139
REMARK   46  A    between atoms: _138  and  _141
REMARK   47  A    between atoms: _141  and  _142
REMARK   48  A    between atoms: _145  and  _147
REMARK   49  A    between atoms: _147  and  _148
REMARK   50  A    between atoms: _147  and  _150
REMARK   51  A    between atoms: _150  and  _151
REMARK   52  A    between atoms: _151  and  _152
REMARK   53  A    between atoms: _155  and  _157
REMARK   54  A    between atoms: _157  and  _158
REMARK   55  A    between atoms: _157  and  _160
REMARK   56  A    between atoms: _160  and  _161
REMARK   57  A    between atoms: _161  and  _162
REMARK   58  A    between atoms: _162  and  _163
REMARK   59  A    between atoms: _163  and  _164
REMARK   60  A    between atoms: _168  and  _170
REMARK   61  A    between atoms: _170  and  _171
REMARK   62  A    between atoms: _170  and  _173
REMARK   63  A    between atoms: _173  and  _174
REMARK   64  A    between atoms: _178  and  ZN_290
REMARK   65  A    between atoms: _179  and  _181
REMARK   66  A    between atoms: _181  and  _182
REMARK   67  A    between atoms: _181  and  _184
REMARK   68  A    between atoms: _184  and  _185
REMARK   69  A    between atoms: _188  and  _190
REMARK   70  A    between atoms: _190  and  _191
REMARK   71  A    between atoms: _193  and  _195
REMARK   72  A    between atoms: _195  and  _196
REMARK   73  A    between atoms: _195  and  _198
REMARK   74  A    between atoms: _198  and  _199
REMARK   75  A    between atoms: _199  and  ZN_291
REMARK   76  A    between atoms: _200  and  _202
REMARK   77  A    between atoms: _202  and  _203
REMARK   78  A    between atoms: _202  and  _205
REMARK   79  A    between atoms: _205  and  _206
REMARK   80  A    between atoms: _209  and  _211
REMARK   81  A    between atoms: _211  and  _212
REMARK   82  A    between atoms: _211  and  _214
REMARK   83  A    between atoms: _214  and  _215
REMARK   84  A    between atoms: _215  and  _216
REMARK   85  A    between atoms: _216  and  _217
REMARK   86  A    between atoms: _217  and  _218
REMARK   87  A    between atoms: _222  and  _224
REMARK   88  A    between atoms: _224  and  _225
REMARK   89  A    between atoms: _224  and  _227
REMARK   90  A    between atoms: _227  and  _228
REMARK   91  A    between atoms: _231  and  _233
REMARK   92  A    between atoms: _233  and  _234
REMARK   93  A    between atoms: _236  and  _238
REMARK   94  A    between atoms: _238  and  _239
REMARK   95  A    between atoms: _238  and  _241
REMARK   96  A    between atoms: _241  and  _242
REMARK   97  A    between atoms: _247  and  _248
REMARK   98  A    between atoms: _250  and  _252
REMARK   99  A    between atoms: _252  and  _253
REMARK  100  A    between atoms: _252  and  _255
REMARK  101  A    between atoms: _255  and  _256
REMARK  102  A    between atoms: _259  and  _261
REMARK  103  A    between atoms: _261  and  _262
REMARK  104  A    between atoms: _264  and  _266
REMARK  105  A    between atoms: _266  and  _267
REMARK  106  A    between atoms: _266  and  _269
REMARK  107  A    between atoms: _269  and  _270
REMARK  108  A    between atoms: _270  and  _271
REMARK  109  A    between atoms: _274  and  _276
REMARK  110  A    between atoms: _276  and  _277
REMARK  111  A    between atoms: _279  and  _281
REMARK  112  A    between atoms: _281  and  _282
REMARK  113  A    between atoms: _281  and  _284
REMARK  114  A    between atoms: _284  and  _285
REMARK  115  A    between atoms: _289  and  ZN_291
REMARK                            x       y       z     vdW  Elec       q    Type
REMARK                         _______ _______ _______ _____ _____    ______ ____
ROOT
ATOM      1  CA  LEU A   1     -29.638  27.618   1.335  0.00  0.00    +0.133 C 
ENDROOT
BRANCH   1   2
ATOM      2  N   LEU A   1     -28.680  26.676   1.910  0.00  0.00    -0.239 NA
ATOM      3  H   LEU A   1     -27.816  26.438   1.382  0.00  0.00    +0.142 HD
ENDBRANCH   1   2
BRANCH   1   4
ATOM      4  C   LEU A   1     -30.991  26.951   1.117  0.00  0.00    +0.224 C 
ATOM      5  O   LEU A   1     -32.034  27.546   1.392  0.00  0.00    -0.287 OA
ENDBRANCH   1   4
BRANCH   1   6
ATOM      6  CB  LEU A   1     -29.116  28.169   0.004  0.00  0.00    +0.025 C 
BRANCH   6   7
ATOM      7  CG  LEU A   1     -27.912  29.113   0.080  0.00  0.00    +0.002 C 
ATOM      8  CD2 LEU A   1     -28.304  30.407   0.781  0.00  0.00    +0.000 C 
ATOM      9  CD1 LEU A   1     -27.402  29.393  -1.320  0.00  0.00    +0.000 C 
ENDBRANCH   6   7
ENDBRANCH   1   6
TORSDOF 4
REMARK  Name = ../refined-set-2016/1m2x/1m2x_pocket.pdb
REMARK  115 active torsions:
REMARK  status: ('A' for Active; 'I' for Inactive)
REMARK    1  A    between atoms: _1  and  _3
REMARK    2  A    between atoms: _3  and  _4
REMARK    3  A    between atoms: _3  and  _6
REMARK    4  A    between atoms: _6  and  _7
REMARK    5  A    between atoms: _12  and  _14
REMARK    6  A    between atoms: _14  and  _15
REMARK    7  A    between atoms: _14  and  _17
REMARK    8  A    between atoms: _17  and  _18
REMARK    9  A    between atoms: _24  and  _26
REMARK   10  A    between atoms: _26  and  _27
REMARK   11  A    between atoms: _26  and  _29
REMARK   12  A    between atoms: _29  and  _30
REMARK   13  A    between atoms: _35  and  _36
REMARK   14  A    between atoms: _38  and  _40
REMARK   15  A    between atoms: _40  and  _41
REMARK   16  A    between atoms: _44  and  _46
REMARK   17  A    between atoms: _46  and  _47
REMARK   18  A    between atoms: _46  and  _49
REMARK   19  A    between atoms: _49  and  _50
REMARK   20  A    between atoms: _60  and  _62
REMARK   21  A    between atoms: _73  and  _76
REMARK   22  A    between atoms: _76  and  _77
REMARK   23  A    between atoms: _81  and  _82
REMARK   24  A    between atoms: _90  and  _92
REMARK   25  A    between atoms: _92  and  _93
REMARK   26  A    between atoms: _92  and  _95
REMARK   27  A    between atoms: _95  and  _96
REMARK   28  A    between atoms: _99  and  _101
REMARK   29  A    between atoms: _101  and  _102
REMARK   30  A    between atoms: _101  and  _104
REMARK   31  A    between atoms: _104  and  _105
REMARK   32  A    between atoms: _105  and  _107
REMARK   33  A    between atoms: _107  and  ZN_291
REMARK   34  A    between atoms: _108  and  _110
REMARK   35  A    between atoms: _110  and  _111
REMARK   36  A    between atoms: _110  and  _113
REMARK   37  A    between atoms: _113  and  _114
REMARK   38  A    between atoms: _114  and  _115
REMARK   39  A    between atoms: _115  and  _116
REMARK   40  A    between atoms: _125  and  _127
REMARK   41  A    between atoms: _127  and  _128
REMARK   42  A    between atoms: _131  and  _133
REMARK   43  A    between atoms: _133  and  _134
REMARK   44  A    between atoms: _136  and  _138
REMARK   45  A    between atoms: _138  and  _139
REMARK   46  A    between atoms: _138  and  _141
REMARK   47  A    between atoms: _141  and  _142
REMARK   48  A    between atoms: _145  and  _147
REMARK   49  A    between atoms: _147  and  _148
REMARK   50  A    between atoms: _147  and  _150
REMARK   51  A    between atoms: _150  and  _151
REMARK   52  A    between atoms: _151  and  _152
REMARK   53  A    between atoms: _155  and  _157
REMARK   54  A    between atoms: _157  and  _158
REMARK   55  A    between atoms: _157  and  _160
REMARK   56  A    between atoms: _160  and  _161
REMARK   57  A    between atoms: _161  and  _162
REMARK   58  A    between atoms: _162  and  _163
REMARK   59  A    between atoms: _163  and  _164
REMARK   60  A    between atoms: _168  and  _170
REMARK   61  A    between atoms: _170  and  _171
REMARK   62  A    between atoms: _170  and  _173
REMARK   63  A    between atoms: _173  and  _174
REMARK   64  A    between atoms: _178  and  ZN_290
REMARK   65  A    between atoms: _179  and  _181
REMARK   66  A    between atoms: _181  and  _182
REMARK   67  A    between atoms: _181  and  _184
REMARK   68  A    between atoms: _184  and  _185
REMARK   69  A    between atoms: _188  and  _190
REMARK   70  A    between atoms: _190  and  _191
REMARK   71  A    between atoms: _193  and  _195
REMARK   72  A    between atoms: _195  and  _196
REMARK   73  A    between atoms: _195  and  _198
REMARK   74  A    between atoms: _198  and  _199
REMARK   75  A    between atoms: _199  and  ZN_291
REMARK   76  A    between atoms: _200  and  _202
REMARK   77  A    between atoms: _202  and  _203
REMARK   78  A    between atoms: _202  and  _205
REMARK   79  A    between atoms: _205  and  _206
REMARK   80  A    between atoms: _209  and  _211
REMARK   81  A    between atoms: _211  and  _212
REMARK   82  A    between atoms: _211  and  _214
REMARK   83  A    between atoms: _214  and  _215
REMARK   84  A    between atoms: _215  and  _216
REMARK   85  A    between atoms: _216  and  _217
REMARK   86  A    between atoms: _217  and  _218
REMARK   87  A    between atoms: _222  and  _224
REMARK   88  A    between atoms: _224  and  _225
REMARK   89  A    between atoms: _224  and  _227
REMARK   90  A    between atoms: _227  and  _228
REMARK   91  A    between atoms: _231  and  _233
REMARK   92  A    between atoms: _233  and  _234
REMARK   93  A    between atoms: _236  and  _238
REMARK   94  A    between atoms: _238  and  _239
REMARK   95  A    between atoms: _238  and  _241
REMARK   96  A    between atoms: _241  and  _242
REMARK   97  A    between atoms: _247  and  _248
REMARK   98  A    between atoms: _250  and  _252
REMARK   99  A    between atoms: _252  and  _253
REMARK  100  A    between atoms: _252  and  _255
REMARK  101  A    between atoms: _255  and  _256
REMARK  102  A    between atoms: _259  and  _261
REMARK  103  A    between atoms: _261  and  _262
REMARK  104  A    between atoms: _264  and  _266
REMARK  105  A    between atoms: _266  and  _267
REMARK  106  A    between atoms: _266  and  _269
REMARK  107  A    between atoms: _269  and  _270
REMARK  108  A    between atoms: _270  and  _271
REMARK  109  A    between atoms: _274  and  _276
REMARK  110  A    between atoms: _276  and  _277
REMARK  111  A    between atoms: _279  and  _281
REMARK  112  A    between atoms: _281  and  _282
REMARK  113  A    between atoms: _281  and  _284
REMARK  114  A    between atoms: _284  and  _285
REMARK  115  A    between atoms: _289  and  ZN_291
REMARK                            x       y       z     vdW  Elec       q    Type
REMARK                         _______ _______ _______ _____ _____    ______ ____
ROOT
ATOM      1  CA  GLU A   1     -33.322  27.900   4.837  0.00  0.00    +0.134 C 
ENDROOT
BRANCH   1   2
ATOM      2  N   GLU A   1     -32.807  26.621   4.346  0.00  0.00    -0.239 NA
ATOM      3  H   GLU A   1     -31.935  26.605   3.780  0.00  0.00    +0.142 HD
ENDBRANCH   1   2
BRANCH   1   4
ATOM      4  C   GLU A   1     -34.311  28.548   3.864  0.00  0.00    +0.224 C 
ATOM      5  O   GLU A   1     -34.764  29.671   4.086  0.00  0.00    -0.287 OA
ENDBRANCH   1   4
BRANCH   1   6
ATOM      6  CB  GLU A   1     -32.160  28.867   5.105  0.00  0.00    +0.037 C 
BRANCH   6   7
ATOM      7  CG  GLU A   1     -31.176  28.400   6.173  0.00  0.00    +0.116 C 
BRANCH   7   8
ATOM      8  CD  GLU A   1     -31.845  28.147   7.512  0.00  0.00    +0.365 C 
ATOM      9  OE2 GLU A   1     -32.431  29.095   8.075  0.00  0.00    -0.246 OA
ATOM     10  OE1 GLU A   1     -31.786  26.999   8.003  0.00  0.00    -0.246 OA
ENDBRANCH   7   8
ENDBRANCH   6   7
ENDBRANCH   1   6
TORSDOF 5
REMARK  Name = ../refined-set-2016/1m2x/1m2x_pocket.pdb
REMARK  115 active torsions:
REMARK  status: ('A' for Active; 'I' for Inactive)
REMARK    1  A    between atoms: _1  and  _3
REMARK    2  A    between atoms: _3  and  _4
REMARK    3  A    between atoms: _3  and  _6
REMARK    4  A    between atoms: _6  and  _7
REMARK    5  A    between atoms: _12  and  _14
REMARK    6  A    between atoms: _14  and  _15
REMARK    7  A    between atoms: _14  and  _17
REMARK    8  A    between atoms: _17  and  _18
REMARK    9  A    between atoms: _24  and  _26
REMARK   10  A    between atoms: _26  and  _27
REMARK   11  A    between atoms: _26  and  _29
REMARK   12  A    between atoms: _29  and  _30
REMARK   13  A    between atoms: _35  and  _36
REMARK   14  A    between atoms: _38  and  _40
REMARK   15  A    between atoms: _40  and  _41
REMARK   16  A    between atoms: _44  and  _46
REMARK   17  A    between atoms: _46  and  _47
REMARK   18  A    between atoms: _46  and  _49
REMARK   19  A    between atoms: _49  and  _50
REMARK   20  A    between atoms: _60  and  _62
REMARK   21  A    between atoms: _73  and  _76
REMARK   22  A    between atoms: _76  and  _77
REMARK   23  A    between atoms: _81  and  _82
REMARK   24  A    between atoms: _90  and  _92
REMARK   25  A    between atoms: _92  and  _93
REMARK   26  A    between atoms: _92  and  _95
REMARK   27  A    between atoms: _95  and  _96
REMARK   28  A    between atoms: _99  and  _101
REMARK   29  A    between atoms: _101  and  _102
REMARK   30  A    between atoms: _101  and  _104
REMARK   31  A    between atoms: _104  and  _105
REMARK   32  A    between atoms: _105  and  _107
REMARK   33  A    between atoms: _107  and  ZN_291
REMARK   34  A    between atoms: _108  and  _110
REMARK   35  A    between atoms: _110  and  _111
REMARK   36  A    between atoms: _110  and  _113
REMARK   37  A    between atoms: _113  and  _114
REMARK   38  A    between atoms: _114  and  _115
REMARK   39  A    between atoms: _115  and  _116
REMARK   40  A    between atoms: _125  and  _127
REMARK   41  A    between atoms: _127  and  _128
REMARK   42  A    between atoms: _131  and  _133
REMARK   43  A    between atoms: _133  and  _134
REMARK   44  A    between atoms: _136  and  _138
REMARK   45  A    between atoms: _138  and  _139
REMARK   46  A    between atoms: _138  and  _141
REMARK   47  A    between atoms: _141  and  _142
REMARK   48  A    between atoms: _145  and  _147
REMARK   49  A    between atoms: _147  and  _148
REMARK   50  A    between atoms: _147  and  _150
REMARK   51  A    between atoms: _150  and  _151
REMARK   52  A    between atoms: _151  and  _152
REMARK   53  A    between atoms: _155  and  _157
REMARK   54  A    between atoms: _157  and  _158
REMARK   55  A    between atoms: _157  and  _160
REMARK   56  A    between atoms: _160  and  _161
REMARK   57  A    between atoms: _161  and  _162
REMARK   58  A    between atoms: _162  and  _163
REMARK   59  A    between atoms: _163  and  _164
REMARK   60  A    between atoms: _168  and  _170
REMARK   61  A    between atoms: _170  and  _171
REMARK   62  A    between atoms: _170  and  _173
REMARK   63  A    between atoms: _173  and  _174
REMARK   64  A    between atoms: _178  and  ZN_290
REMARK   65  A    between atoms: _179  and  _181
REMARK   66  A    between atoms: _181  and  _182
REMARK   67  A    between atoms: _181  and  _184
REMARK   68  A    between atoms: _184  and  _185
REMARK   69  A    between atoms: _188  and  _190
REMARK   70  A    between atoms: _190  and  _191
REMARK   71  A    between atoms: _193  and  _195
REMARK   72  A    between atoms: _195  and  _196
REMARK   73  A    between atoms: _195  and  _198
REMARK   74  A    between atoms: _198  and  _199
REMARK   75  A    between atoms: _199  and  ZN_291
REMARK   76  A    between atoms: _200  and  _202
REMARK   77  A    between atoms: _202  and  _203
REMARK   78  A    between atoms: _202  and  _205
REMARK   79  A    between atoms: _205  and  _206
REMARK   80  A    between atoms: _209  and  _211
REMARK   81  A    between atoms: _211  and  _212
REMARK   82  A    between atoms: _211  and  _214
REMARK   83  A    between atoms: _214  and  _215
REMARK   84  A    between atoms: _215  and  _216
REMARK   85  A    between atoms: _216  and  _217
REMARK   86  A    between atoms: _217  and  _218
REMARK   87  A    between atoms: _222  and  _224
REMARK   88  A    between atoms: _224  and  _225
REMARK   89  A    between atoms: _224  and  _227
REMARK   90  A    between atoms: _227  and  _228
REMARK   91  A    between atoms: _231  and  _233
REMARK   92  A    between atoms: _233  and  _234
REMARK   93  A    between atoms: _236  and  _238
REMARK   94  A    between atoms: _238  and  _239
REMARK   95  A    between atoms: _238  and  _241
REMARK   96  A    between atoms: _241  and  _242
REMARK   97  A    between atoms: _247  and  _248
REMARK   98  A    between atoms: _250  and  _252
REMARK   99  A    between atoms: _252  and  _253
REMARK  100  A    between atoms: _252  and  _255
REMARK  101  A    between atoms: _255  and  _256
REMARK  102  A    between atoms: _259  and  _261
REMARK  103  A    between atoms: _261  and  _262
REMARK  104  A    between atoms: _264  and  _266
REMARK  105  A    between atoms: _266  and  _267
REMARK  106  A    between atoms: _266  and  _269
REMARK  107  A    between atoms: _269  and  _270
REMARK  108  A    between atoms: _270  and  _271
REMARK  109  A    between atoms: _274  and  _276
REMARK  110  A    between atoms: _276  and  _277
REMARK  111  A    between atoms: _279  and  _281
REMARK  112  A    between atoms: _281  and  _282
REMARK  113  A    between atoms: _281  and  _284
REMARK  114  A    between atoms: _284  and  _285
REMARK  115  A    between atoms: _289  and  ZN_291
REMARK                            x       y       z     vdW  Elec       q    Type
REMARK                         _______ _______ _______ _____ _____    ______ ____
ROOT
ATOM      1  CG  LYS A   1     -32.169  31.847   2.462  0.00  0.00    -0.000 C 
ENDROOT
BRANCH   1   2
ATOM      2  CB  LYS A   1     -31.977  31.355   1.025  0.00  0.00    +0.025 C 
BRANCH   2   3
ATOM      3  CA  LYS A   1     -33.264  30.961   0.291  0.00  0.00    +0.133 C 
BRANCH   3   4
ATOM      4  N   LYS A   1     -33.832  29.755   0.882  0.00  0.00    -0.239 NA
ATOM      5  H   LYS A   1     -33.212  28.942   1.069  0.00  0.00    +0.142 HD
ENDBRANCH   3   4
BRANCH   3   6
ATOM      6  C   LYS A   1     -32.941  30.642  -1.165  0.00  0.00    +0.224 C 
ATOM      7  O   LYS A   1     -32.733  29.483  -1.514  0.00  0.00    -0.287 OA
ENDBRANCH   3   6
ENDBRANCH   2   3
ENDBRANCH   1   2
BRANCH   1   8
ATOM      8  CD  LYS A   1     -30.824  32.244   3.071  0.00  0.00    -0.024 C 
BRANCH   8   9
ATOM      9  CE  LYS A   1     -30.971  32.855   4.456  0.00  0.00    -0.086 C 
BRANCH   9  10
ATOM     10  NZ  LYS A   1     -29.649  33.278   5.011  0.00  0.00    +0.380 N 
ATOM     11  HZ1 LYS A   1     -29.787  33.690   5.956  0.00  0.00    -0.089 HD
ATOM     12  HZ2 LYS A   1     -29.023  32.451   5.080  0.00  0.00    -0.089 HD
ATOM     13  HZ3 LYS A   1     -29.221  33.987   4.382  0.00  0.00    -0.089 HD
ENDBRANCH   9  10
ENDBRANCH   8   9
ENDBRANCH   1   8
TORSDOF 7
REMARK  Name = ../refined-set-2016/1m2x/1m2x_pocket.pdb
REMARK  115 active torsions:
REMARK  status: ('A' for Active; 'I' for Inactive)
REMARK    1  A    between atoms: _1  and  _3
REMARK    2  A    between atoms: _3  and  _4
REMARK    3  A    between atoms: _3  and  _6
REMARK    4  A    between atoms: _6  and  _7
REMARK    5  A    between atoms: _12  and  _14
REMARK    6  A    between atoms: _14  and  _15
REMARK    7  A    between atoms: _14  and  _17
REMARK    8  A    between atoms: _17  and  _18
REMARK    9  A    between atoms: _24  and  _26
REMARK   10  A    between atoms: _26  and  _27
REMARK   11  A    between atoms: _26  and  _29
REMARK   12  A    between atoms: _29  and  _30
REMARK   13  A    between atoms: _35  and  _36
REMARK   14  A    between atoms: _38  and  _40
REMARK   15  A    between atoms: _40  and  _41
REMARK   16  A    between atoms: _44  and  _46
REMARK   17  A    between atoms: _46  and  _47
REMARK   18  A    between atoms: _46  and  _49
REMARK   19  A    between atoms: _49  and  _50
REMARK   20  A    between atoms: _60  and  _62
REMARK   21  A    between atoms: _73  and  _76
REMARK   22  A    between atoms: _76  and  _77
REMARK   23  A    between atoms: _81  and  _82
REMARK   24  A    between atoms: _90  and  _92
REMARK   25  A    between atoms: _92  and  _93
REMARK   26  A    between atoms: _92  and  _95
REMARK   27  A    between atoms: _95  and  _96
REMARK   28  A    between atoms: _99  and  _101
REMARK   29  A    between atoms: _101  and  _102
REMARK   30  A    between atoms: _101  and  _104
REMARK   31  A    between atoms: _104  and  _105
REMARK   32  A    between atoms: _105  and  _107
REMARK   33  A    between atoms: _107  and  ZN_291
REMARK   34  A    between atoms: _108  and  _110
REMARK   35  A    between atoms: _110  and  _111
REMARK   36  A    between atoms: _110  and  _113
REMARK   37  A    between atoms: _113  and  _114
REMARK   38  A    between atoms: _114  and  _115
REMARK   39  A    between atoms: _115  and  _116
REMARK   40  A    between atoms: _125  and  _127
REMARK   41  A    between atoms: _127  and  _128
REMARK   42  A    between atoms: _131  and  _133
REMARK   43  A    between atoms: _133  and  _134
REMARK   44  A    between atoms: _136  and  _138
REMARK   45  A    between atoms: _138  and  _139
REMARK   46  A    between atoms: _138  and  _141
REMARK   47  A    between atoms: _141  and  _142
REMARK   48  A    between atoms: _145  and  _147
REMARK   49  A    between atoms: _147  and  _148
REMARK   50  A    between atoms: _147  and  _150
REMARK   51  A    between atoms: _150  and  _151
REMARK   52  A    between atoms: _151  and  _152
REMARK   53  A    between atoms: _155  and  _157
REMARK   54  A    between atoms: _157  and  _158
REMARK   55  A    between atoms: _157  and  _160
REMARK   56  A    between atoms: _160  and  _161
REMARK   57  A    between atoms: _161  and  _162
REMARK   58  A    between atoms: _162  and  _163
REMARK   59  A    between atoms: _163  and  _164
REMARK   60  A    between atoms: _168  and  _170
REMARK   61  A    between atoms: _170  and  _171
REMARK   62  A    between atoms: _170  and  _173
REMARK   63  A    between atoms: _173  and  _174
REMARK   64  A    between atoms: _178  and  ZN_290
REMARK   65  A    between atoms: _179  and  _181
REMARK   66  A    between atoms: _181  and  _182
REMARK   67  A    between atoms: _181  and  _184
REMARK   68  A    between atoms: _184  and  _185
REMARK   69  A    between atoms: _188  and  _190
REMARK   70  A    between atoms: _190  and  _191
REMARK   71  A    between atoms: _193  and  _195
REMARK   72  A    between atoms: _195  and  _196
REMARK   73  A    between atoms: _195  and  _198
REMARK   74  A    between atoms: _198  and  _199
REMARK   75  A    between atoms: _199  and  ZN_291
REMARK   76  A    between atoms: _200  and  _202
REMARK   77  A    between atoms: _202  and  _203
REMARK   78  A    between atoms: _202  and  _205
REMARK   79  A    between atoms: _205  and  _206
REMARK   80  A    between atoms: _209  and  _211
REMARK   81  A    between atoms: _211  and  _212
REMARK   82  A    between atoms: _211  and  _214
REMARK   83  A    between atoms: _214  and  _215
REMARK   84  A    between atoms: _215  and  _216
REMARK   85  A    between atoms: _216  and  _217
REMARK   86  A    between atoms: _217  and  _218
REMARK   87  A    between atoms: _222  and  _224
REMARK   88  A    between atoms: _224  and  _225
REMARK   89  A    between atoms: _224  and  _227
REMARK   90  A    between atoms: _227  and  _228
REMARK   91  A    between atoms: _231  and  _233
REMARK   92  A    between atoms: _233  and  _234
REMARK   93  A    between atoms: _236  and  _238
REMARK   94  A    between atoms: _238  and  _239
REMARK   95  A    between atoms: _238  and  _241
REMARK   96  A    between atoms: _241  and  _242
REMARK   97  A    between atoms: _247  and  _248
REMARK   98  A    between atoms: _250  and  _252
REMARK   99  A    between atoms: _252  and  _253
REMARK  100  A    between atoms: _252  and  _255
REMARK  101  A    between atoms: _255  and  _256
REMARK  102  A    between atoms: _259  and  _261
REMARK  103  A    between atoms: _261  and  _262
REMARK  104  A    between atoms: _264  and  _266
REMARK  105  A    between atoms: _266  and  _267
REMARK  106  A    between atoms: _266  and  _269
REMARK  107  A    between atoms: _269  and  _270
REMARK  108  A    between atoms: _270  and  _271
REMARK  109  A    between atoms: _274  and  _276
REMARK  110  A    between atoms: _276  and  _277
REMARK  111  A    between atoms: _279  and  _281
REMARK  112  A    between atoms: _281  and  _282
REMARK  113  A    between atoms: _281  and  _284
REMARK  114  A    between atoms: _284  and  _285
REMARK  115  A    between atoms: _289  and  ZN_291
REMARK                            x       y       z     vdW  Elec       q    Type
REMARK                         _______ _______ _______ _____ _____    ______ ____
ROOT
ATOM      1  CG  LYS A   1     -12.476  37.263  12.803  0.00  0.00    -0.000 C 
ENDROOT
BRANCH   1   2
ATOM      2  CB  LYS A   1     -11.664  38.484  12.382  0.00  0.00    +0.025 C 
BRANCH   2   3
ATOM      3  CA  LYS A   1     -11.573  38.717  10.870  0.00  0.00    +0.133 C 
BRANCH   3   4
ATOM      4  N   LYS A   1     -11.096  37.519  10.186  0.00  0.00    -0.239 NA
ATOM      5  H   LYS A   1     -10.470  36.859  10.690  0.00  0.00    +0.142 HD
ENDBRANCH   3   4
BRANCH   3   6
ATOM      6  C   LYS A   1     -10.616  39.875  10.622  0.00  0.00    +0.224 C 
ATOM      7  O   LYS A   1      -9.430  39.668  10.368  0.00  0.00    -0.287 OA
ENDBRANCH   3   6
ENDBRANCH   2   3
ENDBRANCH   1   2
BRANCH   1   8
ATOM      8  CD  LYS A   1     -13.922  37.339  12.327  0.00  0.00    -0.024 C 
BRANCH   8   9
ATOM      9  CE  LYS A   1     -14.633  38.589  12.831  0.00  0.00    -0.086 C 
BRANCH   9  10
ATOM     10  NZ  LYS A   1     -16.064  38.567  12.410  0.00  0.00    +0.380 N 
ATOM     11  HZ1 LYS A   1     -16.528  37.725  12.807  0.00  0.00    -0.089 HD
ATOM     12  HZ2 LYS A   1     -16.540  39.424  12.759  0.00  0.00    -0.089 HD
ATOM     13  HZ3 LYS A   1     -16.118  38.537  11.372  0.00  0.00    -0.089 HD
ENDBRANCH   9  10
ENDBRANCH   8   9
ENDBRANCH   1   8
TORSDOF 7
REMARK  Name = ../refined-set-2016/1m2x/1m2x_pocket.pdb
REMARK  115 active torsions:
REMARK  status: ('A' for Active; 'I' for Inactive)
REMARK    1  A    between atoms: _1  and  _3
REMARK    2  A    between atoms: _3  and  _4
REMARK    3  A    between atoms: _3  and  _6
REMARK    4  A    between atoms: _6  and  _7
REMARK    5  A    between atoms: _12  and  _14
REMARK    6  A    between atoms: _14  and  _15
REMARK    7  A    between atoms: _14  and  _17
REMARK    8  A    between atoms: _17  and  _18
REMARK    9  A    between atoms: _24  and  _26
REMARK   10  A    between atoms: _26  and  _27
REMARK   11  A    between atoms: _26  and  _29
REMARK   12  A    between atoms: _29  and  _30
REMARK   13  A    between atoms: _35  and  _36
REMARK   14  A    between atoms: _38  and  _40
REMARK   15  A    between atoms: _40  and  _41
REMARK   16  A    between atoms: _44  and  _46
REMARK   17  A    between atoms: _46  and  _47
REMARK   18  A    between atoms: _46  and  _49
REMARK   19  A    between atoms: _49  and  _50
REMARK   20  A    between atoms: _60  and  _62
REMARK   21  A    between atoms: _73  and  _76
REMARK   22  A    between atoms: _76  and  _77
REMARK   23  A    between atoms: _81  and  _82
REMARK   24  A    between atoms: _90  and  _92
REMARK   25  A    between atoms: _92  and  _93
REMARK   26  A    between atoms: _92  and  _95
REMARK   27  A    between atoms: _95  and  _96
REMARK   28  A    between atoms: _99  and  _101
REMARK   29  A    between atoms: _101  and  _102
REMARK   30  A    between atoms: _101  and  _104
REMARK   31  A    between atoms: _104  and  _105
REMARK   32  A    between atoms: _105  and  _107
REMARK   33  A    between atoms: _107  and  ZN_291
REMARK   34  A    between atoms: _108  and  _110
REMARK   35  A    between atoms: _110  and  _111
REMARK   36  A    between atoms: _110  and  _113
REMARK   37  A    between atoms: _113  and  _114
REMARK   38  A    between atoms: _114  and  _115
REMARK   39  A    between atoms: _115  and  _116
REMARK   40  A    between atoms: _125  and  _127
REMARK   41  A    between atoms: _127  and  _128
REMARK   42  A    between atoms: _131  and  _133
REMARK   43  A    between atoms: _133  and  _134
REMARK   44  A    between atoms: _136  and  _138
REMARK   45  A    between atoms: _138  and  _139
REMARK   46  A    between atoms: _138  and  _141
REMARK   47  A    between atoms: _141  and  _142
REMARK   48  A    between atoms: _145  and  _147
REMARK   49  A    between atoms: _147  and  _148
REMARK   50  A    between atoms: _147  and  _150
REMARK   51  A    between atoms: _150  and  _151
REMARK   52  A    between atoms: _151  and  _152
REMARK   53  A    between atoms: _155  and  _157
REMARK   54  A    between atoms: _157  and  _158
REMARK   55  A    between atoms: _157  and  _160
REMARK   56  A    between atoms: _160  and  _161
REMARK   57  A    between atoms: _161  and  _162
REMARK   58  A    between atoms: _162  and  _163
REMARK   59  A    between atoms: _163  and  _164
REMARK   60  A    between atoms: _168  and  _170
REMARK   61  A    between atoms: _170  and  _171
REMARK   62  A    between atoms: _170  and  _173
REMARK   63  A    between atoms: _173  and  _174
REMARK   64  A    between atoms: _178  and  ZN_290
REMARK   65  A    between atoms: _179  and  _181
REMARK   66  A    between atoms: _181  and  _182
REMARK   67  A    between atoms: _181  and  _184
REMARK   68  A    between atoms: _184  and  _185
REMARK   69  A    between atoms: _188  and  _190
REMARK   70  A    between atoms: _190  and  _191
REMARK   71  A    between atoms: _193  and  _195
REMARK   72  A    between atoms: _195  and  _196
REMARK   73  A    between atoms: _195  and  _198
REMARK   74  A    between atoms: _198  and  _199
REMARK   75  A    between atoms: _199  and  ZN_291
REMARK   76  A    between atoms: _200  and  _202
REMARK   77  A    between atoms: _202  and  _203
REMARK   78  A    between atoms: _202  and  _205
REMARK   79  A    between atoms: _205  and  _206
REMARK   80  A    between atoms: _209  and  _211
REMARK   81  A    between atoms: _211  and  _212
REMARK   82  A    between atoms: _211  and  _214
REMARK   83  A    between atoms: _214  and  _215
REMARK   84  A    between atoms: _215  and  _216
REMARK   85  A    between atoms: _216  and  _217
REMARK   86  A    between atoms: _217  and  _218
REMARK   87  A    between atoms: _222  and  _224
REMARK   88  A    between atoms: _224  and  _225
REMARK   89  A    between atoms: _224  and  _227
REMARK   90  A    between atoms: _227  and  _228
REMARK   91  A    between atoms: _231  and  _233
REMARK   92  A    between atoms: _233  and  _234
REMARK   93  A    between atoms: _236  and  _238
REMARK   94  A    between atoms: _238  and  _239
REMARK   95  A    between atoms: _238  and  _241
REMARK   96  A    between atoms: _241  and  _242
REMARK   97  A    between atoms: _247  and  _248
REMARK   98  A    between atoms: _250  and  _252
REMARK   99  A    between atoms: _252  and  _253
REMARK  100  A    between atoms: _252  and  _255
REMARK  101  A    between atoms: _255  and  _256
REMARK  102  A    between atoms: _259  and  _261
REMARK  103  A    between atoms: _261  and  _262
REMARK  104  A    between atoms: _264  and  _266
REMARK  105  A    between atoms: _266  and  _267
REMARK  106  A    between atoms: _266  and  _269
REMARK  107  A    between atoms: _269  and  _270
REMARK  108  A    between atoms: _270  and  _271
REMARK  109  A    between atoms: _274  and  _276
REMARK  110  A    between atoms: _276  and  _277
REMARK  111  A    between atoms: _279  and  _281
REMARK  112  A    between atoms: _281  and  _282
REMARK  113  A    between atoms: _281  and  _284
REMARK  114  A    between atoms: _284  and  _285
REMARK  115  A    between atoms: _289  and  ZN_291
REMARK                            x       y       z     vdW  Elec       q    Type
REMARK                         _______ _______ _______ _____ _____    ______ ____
ROOT
ATOM      1  CA  TYR A   3     -21.718  36.041  14.386  0.00  0.00    +0.153 C 
ENDROOT
BRANCH   1   4
ATOM      2  C   GLY A   2     -19.844  37.247  15.348  0.00  0.00    +0.243 C 
ATOM      3  O   GLY A   2     -19.972  36.662  16.422  0.00  0.00    -0.273 OA
ATOM      4  N   TYR A   3     -20.635  37.015  14.306  0.00  0.00    -0.297 N 
ATOM      5  H   TYR A   3     -20.480  37.536  13.419  0.00  0.00    +0.150 HD
BRANCH   2   6
ATOM      6  CA  GLY A   2     -18.750  38.281  15.158  0.00  0.00    +0.176 C 
BRANCH   6   8
ATOM      7  C   LEU A   1     -16.687  37.063  15.462  0.00  0.00    +0.238 C 
ATOM      8  N   GLY A   2     -17.557  37.958  15.921  0.00  0.00    -0.296 N 
ATOM      9  H   GLY A   2     -17.382  38.429  16.831  0.00  0.00    +0.150 HD
ATOM     10  O   LEU A   1     -16.837  36.480  14.391  0.00  0.00    -0.274 OA
BRANCH   7  11
ATOM     11  CA  LEU A   1     -15.460  36.786  16.328  0.00  0.00    +0.145 C 
BRANCH  11  12
ATOM     12  N   LEU A   1     -15.351  37.649  17.502  0.00  0.00    -0.238 NA
ATOM     13  H   LEU A   1     -15.600  37.265  18.436  0.00  0.00    +0.142 HD
ENDBRANCH  11  12
BRANCH  11  14
ATOM     14  CB  LEU A   1     -15.462  35.315  16.757  0.00  0.00    +0.026 C 
BRANCH  14  15
ATOM     15  CG  LEU A   1     -14.131  34.745  17.263  0.00  0.00    +0.002 C 
ATOM     16  CD2 LEU A   1     -14.345  33.352  17.835  0.00  0.00    +0.000 C 
ATOM     17  CD1 LEU A   1     -13.127  34.700  16.119  0.00  0.00    +0.000 C 
ENDBRANCH  14  15
ENDBRANCH  11  14
ENDBRANCH   7  11
ENDBRANCH   6   8
ENDBRANCH   2   6
ENDBRANCH   1   4
BRANCH   1  18
ATOM     18  C   TYR A   3     -21.164  34.621  14.426  0.00  0.00    +0.241 C 
ATOM     19  N   ILE A   4     -21.321  33.951  15.565  0.00  0.00    -0.297 N 
ATOM     20  H   ILE A   4     -21.815  34.403  16.361  0.00  0.00    +0.150 HD
ATOM     21  O   TYR A   3     -20.614  34.136  13.437  0.00  0.00    -0.273 OA
BRANCH  19  22
ATOM     22  CA  ILE A   4     -20.809  32.589  15.715  0.00  0.00    +0.149 C 
BRANCH  22  23
ATOM     23  C   ILE A   4     -21.896  31.538  15.943  0.00  0.00    +0.241 C 
ATOM     24  O   ILE A   4     -21.604  30.399  16.318  0.00  0.00    -0.273 OA
ATOM     25  N   GLY A   5     -23.148  31.911  15.703  0.00  0.00    -0.295 N 
ATOM     26  H   GLY A   5     -23.350  32.878  15.378  0.00  0.00    +0.150 HD
BRANCH  25  27
ATOM     27  CA  GLY A   5     -24.236  30.967  15.895  0.00  0.00    +0.176 C 
BRANCH  27  28
ATOM     28  C   GLY A   5     -24.129  29.703  15.054  0.00  0.00    +0.243 C 
ATOM     29  O   GLY A   5     -24.743  28.685  15.375  0.00  0.00    -0.273 OA
ATOM     30  N   GLU A   6     -23.349  29.761  13.981  0.00  0.00    -0.298 N 
ATOM     31  H   GLU A   6     -22.847  30.646  13.766  0.00  0.00    +0.150 HD
BRANCH  30  32
ATOM     32  CA  GLU A   6     -23.179  28.612  13.096  0.00  0.00    +0.137 C 
BRANCH  32  33
ATOM     33  C   GLU A   6     -21.700  28.295  12.900  0.00  0.00    +0.227 C 
ATOM     34  O   GLU A   6     -21.320  27.595  11.963  0.00  0.00    -0.286 OA
ENDBRANCH  32  33
BRANCH  32  35
ATOM     35  CB  GLU A   6     -23.831  28.917  11.744  0.00  0.00    +0.039 C 
BRANCH  35  36
ATOM     36  CG  GLU A   6     -25.338  29.116  11.822  0.00  0.00    +0.116 C 
BRANCH  36  37
ATOM     37  CD  GLU A   6     -25.888  29.901  10.649  0.00  0.00    +0.365 C 
ATOM     38  OE2 GLU A   6     -26.791  30.739  10.860  0.00  0.00    -0.246 OA
ATOM     39  OE1 GLU A   6     -25.426  29.678   9.512  0.00  0.00    -0.246 OA
ENDBRANCH  36  37
ENDBRANCH  35  36
ENDBRANCH  32  35
ENDBRANCH  30  32
ENDBRANCH  27  28
ENDBRANCH  25  27
ENDBRANCH  22  23
BRANCH  22  40
ATOM     40  CB  ILE A   4     -19.790  32.507  16.871  0.00  0.00    +0.027 C 
ATOM     41  CG2 ILE A   4     -18.523  33.266  16.493  0.00  0.00    +0.002 C 
BRANCH  40  42
ATOM     42  CG1 ILE A   4     -20.402  33.083  18.151  0.00  0.00    +0.002 C 
ATOM     43  CD1 ILE A   4     -19.510  32.962  19.367  0.00  0.00    +0.000 C 
ENDBRANCH  40  42
ENDBRANCH  22  40
ENDBRANCH  19  22
ENDBRANCH   1  18
BRANCH   1  44
ATOM     44  CB  TYR A   3     -22.665  36.190  13.191  0.00  0.00    +0.055 C 
BRANCH  44  45
ATOM     45  CG  TYR A   3     -23.716  35.104  13.131  0.00  0.00    -0.020 A 
ATOM     46  CD2 TYR A   3     -24.618  34.921  14.178  0.00  0.00    -0.001 A 
ATOM     47  CE2 TYR A   3     -25.567  33.901  14.147  0.00  0.00    +0.036 A 
ATOM     48  CZ  TYR A   3     -25.622  33.047  13.059  0.00  0.00    +0.134 A 
ATOM     49  CE1 TYR A   3     -24.739  33.207  12.002  0.00  0.00    +0.036 A 
ATOM     50  CD1 TYR A   3     -23.791  34.236  12.043  0.00  0.00    -0.001 A 
BRANCH  48  51
ATOM     51  OH  TYR A   3     -26.554  32.034  13.039  0.00  0.00    -0.506 OA
ATOM     52  HH  TYR A   3     -27.144  32.146  12.252  0.00  0.00    +0.292 HD
ENDBRANCH  48  51
ENDBRANCH  44  45
ENDBRANCH   1  44
TORSDOF 22
REMARK  Name = ../refined-set-2016/1m2x/1m2x_pocket.pdb
REMARK  115 active torsions:
REMARK  status: ('A' for Active; 'I' for Inactive)
REMARK    1  A    between atoms: _1  and  _3
REMARK    2  A    between atoms: _3  and  _4
REMARK    3  A    between atoms: _3  and  _6
REMARK    4  A    between atoms: _6  and  _7
REMARK    5  A    between atoms: _12  and  _14
REMARK    6  A    between atoms: _14  and  _15
REMARK    7  A    between atoms: _14  and  _17
REMARK    8  A    between atoms: _17  and  _18
REMARK    9  A    between atoms: _24  and  _26
REMARK   10  A    between atoms: _26  and  _27
REMARK   11  A    between atoms: _26  and  _29
REMARK   12  A    between atoms: _29  and  _30
REMARK   13  A    between atoms: _35  and  _36
REMARK   14  A    between atoms: _38  and  _40
REMARK   15  A    between atoms: _40  and  _41
REMARK   16  A    between atoms: _44  and  _46
REMARK   17  A    between atoms: _46  and  _47
REMARK   18  A    between atoms: _46  and  _49
REMARK   19  A    between atoms: _49  and  _50
REMARK   20  A    between atoms: _60  and  _62
REMARK   21  A    between atoms: _73  and  _76
REMARK   22  A    between atoms: _76  and  _77
REMARK   23  A    between atoms: _81  and  _82
REMARK   24  A    between atoms: _90  and  _92
REMARK   25  A    between atoms: _92  and  _93
REMARK   26  A    between atoms: _92  and  _95
REMARK   27  A    between atoms: _95  and  _96
REMARK   28  A    between atoms: _99  and  _101
REMARK   29  A    between atoms: _101  and  _102
REMARK   30  A    between atoms: _101  and  _104
REMARK   31  A    between atoms: _104  and  _105
REMARK   32  A    between atoms: _105  and  _107
REMARK   33  A    between atoms: _107  and  ZN_291
REMARK   34  A    between atoms: _108  and  _110
REMARK   35  A    between atoms: _110  and  _111
REMARK   36  A    between atoms: _110  and  _113
REMARK   37  A    between atoms: _113  and  _114
REMARK   38  A    between atoms: _114  and  _115
REMARK   39  A    between atoms: _115  and  _116
REMARK   40  A    between atoms: _125  and  _127
REMARK   41  A    between atoms: _127  and  _128
REMARK   42  A    between atoms: _131  and  _133
REMARK   43  A    between atoms: _133  and  _134
REMARK   44  A    between atoms: _136  and  _138
REMARK   45  A    between atoms: _138  and  _139
REMARK   46  A    between atoms: _138  and  _141
REMARK   47  A    between atoms: _141  and  _142
REMARK   48  A    between atoms: _145  and  _147
REMARK   49  A    between atoms: _147  and  _148
REMARK   50  A    between atoms: _147  and  _150
REMARK   51  A    between atoms: _150  and  _151
REMARK   52  A    between atoms: _151  and  _152
REMARK   53  A    between atoms: _155  and  _157
REMARK   54  A    between atoms: _157  and  _158
REMARK   55  A    between atoms: _157  and  _160
REMARK   56  A    between atoms: _160  and  _161
REMARK   57  A    between atoms: _161  and  _162
REMARK   58  A    between atoms: _162  and  _163
REMARK   59  A    between atoms: _163  and  _164
REMARK   60  A    between atoms: _168  and  _170
REMARK   61  A    between atoms: _170  and  _171
REMARK   62  A    between atoms: _170  and  _173
REMARK   63  A    between atoms: _173  and  _174
REMARK   64  A    between atoms: _178  and  ZN_290
REMARK   65  A    between atoms: _179  and  _181
REMARK   66  A    between atoms: _181  and  _182
REMARK   67  A    between atoms: _181  and  _184
REMARK   68  A    between atoms: _184  and  _185
REMARK   69  A    between atoms: _188  and  _190
REMARK   70  A    between atoms: _190  and  _191
REMARK   71  A    between atoms: _193  and  _195
REMARK   72  A    between atoms: _195  and  _196
REMARK   73  A    between atoms: _195  and  _198
REMARK   74  A    between atoms: _198  and  _199
REMARK   75  A    between atoms: _199  and  ZN_291
REMARK   76  A    between atoms: _200  and  _202
REMARK   77  A    between atoms: _202  and  _203
REMARK   78  A    between atoms: _202  and  _205
REMARK   79  A    between atoms: _205  and  _206
REMARK   80  A    between atoms: _209  and  _211
REMARK   81  A    between atoms: _211  and  _212
REMARK   82  A    between atoms: _211  and  _214
REMARK   83  A    between atoms: _214  and  _215
REMARK   84  A    between atoms: _215  and  _216
REMARK   85  A    between atoms: _216  and  _217
REMARK   86  A    between atoms: _217  and  _218
REMARK   87  A    between atoms: _222  and  _224
REMARK   88  A    between atoms: _224  and  _225
REMARK   89  A    between atoms: _224  and  _227
REMARK   90  A    between atoms: _227  and  _228
REMARK   91  A    between atoms: _231  and  _233
REMARK   92  A    between atoms: _233  and  _234
REMARK   93  A    between atoms: _236  and  _238
REMARK   94  A    between atoms: _238  and  _239
REMARK   95  A    between atoms: _238  and  _241
REMARK   96  A    between atoms: _241  and  _242
REMARK   97  A    between atoms: _247  and  _248
REMARK   98  A    between atoms: _250  and  _252
REMARK   99  A    between atoms: _252  and  _253
REMARK  100  A    between atoms: _252  and  _255
REMARK  101  A    between atoms: _255  and  _256
REMARK  102  A    between atoms: _259  and  _261
REMARK  103  A    between atoms: _261  and  _262
REMARK  104  A    between atoms: _264  and  _266
REMARK  105  A    between atoms: _266  and  _267
REMARK  106  A    between atoms: _266  and  _269
REMARK  107  A    between atoms: _269  and  _270
REMARK  108  A    between atoms: _270  and  _271
REMARK  109  A    between atoms: _274  and  _276
REMARK  110  A    between atoms: _276  and  _277
REMARK  111  A    between atoms: _279  and  _281
REMARK  112  A    between atoms: _281  and  _282
REMARK  113  A    between atoms: _281  and  _284
REMARK  114  A    between atoms: _284  and  _285
REMARK  115  A    between atoms: _289  and  ZN_291
REMARK                            x       y       z     vdW  Elec       q    Type
REMARK                         _______ _______ _______ _____ _____    ______ ____
ROOT
ATOM      1  O   HOH     1     -21.605  31.671  12.253  0.00  0.00    +0.000 OA
ENDROOT
TORSDOF 0
REMARK  Name = ../refined-set-2016/1m2x/1m2x_pocket.pdb
REMARK  115 active torsions:
REMARK  status: ('A' for Active; 'I' for Inactive)
REMARK    1  A    between atoms: _1  and  _3
REMARK    2  A    between atoms: _3  and  _4
REMARK    3  A    between atoms: _3  and  _6
REMARK    4  A    between atoms: _6  and  _7
REMARK    5  A    between atoms: _12  and  _14
REMARK    6  A    between atoms: _14  and  _15
REMARK    7  A    between atoms: _14  and  _17
REMARK    8  A    between atoms: _17  and  _18
REMARK    9  A    between atoms: _24  and  _26
REMARK   10  A    between atoms: _26  and  _27
REMARK   11  A    between atoms: _26  and  _29
REMARK   12  A    between atoms: _29  and  _30
REMARK   13  A    between atoms: _35  and  _36
REMARK   14  A    between atoms: _38  and  _40
REMARK   15  A    between atoms: _40  and  _41
REMARK   16  A    between atoms: _44  and  _46
REMARK   17  A    between atoms: _46  and  _47
REMARK   18  A    between atoms: _46  and  _49
REMARK   19  A    between atoms: _49  and  _50
REMARK   20  A    between atoms: _60  and  _62
REMARK   21  A    between atoms: _73  and  _76
REMARK   22  A    between atoms: _76  and  _77
REMARK   23  A    between atoms: _81  and  _82
REMARK   24  A    between atoms: _90  and  _92
REMARK   25  A    between atoms: _92  and  _93
REMARK   26  A    between atoms: _92  and  _95
REMARK   27  A    between atoms: _95  and  _96
REMARK   28  A    between atoms: _99  and  _101
REMARK   29  A    between atoms: _101  and  _102
REMARK   30  A    between atoms: _101  and  _104
REMARK   31  A    between atoms: _104  and  _105
REMARK   32  A    between atoms: _105  and  _107
REMARK   33  A    between atoms: _107  and  ZN_291
REMARK   34  A    between atoms: _108  and  _110
REMARK   35  A    between atoms: _110  and  _111
REMARK   36  A    between atoms: _110  and  _113
REMARK   37  A    between atoms: _113  and  _114
REMARK   38  A    between atoms: _114  and  _115
REMARK   39  A    between atoms: _115  and  _116
REMARK   40  A    between atoms: _125  and  _127
REMARK   41  A    between atoms: _127  and  _128
REMARK   42  A    between atoms: _131  and  _133
REMARK   43  A    between atoms: _133  and  _134
REMARK   44  A    between atoms: _136  and  _138
REMARK   45  A    between atoms: _138  and  _139
REMARK   46  A    between atoms: _138  and  _141
REMARK   47  A    between atoms: _141  and  _142
REMARK   48  A    between atoms: _145  and  _147
REMARK   49  A    between atoms: _147  and  _148
REMARK   50  A    between atoms: _147  and  _150
REMARK   51  A    between atoms: _150  and  _151
REMARK   52  A    between atoms: _151  and  _152
REMARK   53  A    between atoms: _155  and  _157
REMARK   54  A    between atoms: _157  and  _158
REMARK   55  A    between atoms: _157  and  _160
REMARK   56  A    between atoms: _160  and  _161
REMARK   57  A    between atoms: _161  and  _162
REMARK   58  A    between atoms: _162  and  _163
REMARK   59  A    between atoms: _163  and  _164
REMARK   60  A    between atoms: _168  and  _170
REMARK   61  A    between atoms: _170  and  _171
REMARK   62  A    between atoms: _170  and  _173
REMARK   63  A    between atoms: _173  and  _174
REMARK   64  A    between atoms: _178  and  ZN_290
REMARK   65  A    between atoms: _179  and  _181
REMARK   66  A    between atoms: _181  and  _182
REMARK   67  A    between atoms: _181  and  _184
REMARK   68  A    between atoms: _184  and  _185
REMARK   69  A    between atoms: _188  and  _190
REMARK   70  A    between atoms: _190  and  _191
REMARK   71  A    between atoms: _193  and  _195
REMARK   72  A    between atoms: _195  and  _196
REMARK   73  A    between atoms: _195  and  _198
REMARK   74  A    between atoms: _198  and  _199
REMARK   75  A    between atoms: _199  and  ZN_291
REMARK   76  A    between atoms: _200  and  _202
REMARK   77  A    between atoms: _202  and  _203
REMARK   78  A    between atoms: _202  and  _205
REMARK   79  A    between atoms: _205  and  _206
REMARK   80  A    between atoms: _209  and  _211
REMARK   81  A    between atoms: _211  and  _212
REMARK   82  A    between atoms: _211  and  _214
REMARK   83  A    between atoms: _214  and  _215
REMARK   84  A    between atoms: _215  and  _216
REMARK   85  A    between atoms: _216  and  _217
REMARK   86  A    between atoms: _217  and  _218
REMARK   87  A    between atoms: _222  and  _224
REMARK   88  A    between atoms: _224  and  _225
REMARK   89  A    between atoms: _224  and  _227
REMARK   90  A    between atoms: _227  and  _228
REMARK   91  A    between atoms: _231  and  _233
REMARK   92  A    between atoms: _233  and  _234
REMARK   93  A    between atoms: _236  and  _238
REMARK   94  A    between atoms: _238  and  _239
REMARK   95  A    between atoms: _238  and  _241
REMARK   96  A    between atoms: _241  and  _242
REMARK   97  A    between atoms: _247  and  _248
REMARK   98  A    between atoms: _250  and  _252
REMARK   99  A    between atoms: _252  and  _253
REMARK  100  A    between atoms: _252  and  _255
REMARK  101  A    between atoms: _255  and  _256
REMARK  102  A    between atoms: _259  and  _261
REMARK  103  A    between atoms: _261  and  _262
REMARK  104  A    between atoms: _264  and  _266
REMARK  105  A    between atoms: _266  and  _267
REMARK  106  A    between atoms: _266  and  _269
REMARK  107  A    between atoms: _269  and  _270
REMARK  108  A    between atoms: _270  and  _271
REMARK  109  A    between atoms: _274  and  _276
REMARK  110  A    between atoms: _276  and  _277
REMARK  111  A    between atoms: _279  and  _281
REMARK  112  A    between atoms: _281  and  _282
REMARK  113  A    between atoms: _281  and  _284
REMARK  114  A    between atoms: _284  and  _285
REMARK  115  A    between atoms: _289  and  ZN_291
REMARK                            x       y       z     vdW  Elec       q    Type
REMARK                         _______ _______ _______ _____ _____    ______ ____
ROOT
ATOM      1  O   HOH     1     -17.167  33.956   3.131  0.00  0.00    +0.000 OA
ENDROOT
TORSDOF 0
REMARK  Name = ../refined-set-2016/1m2x/1m2x_pocket.pdb
REMARK  115 active torsions:
REMARK  status: ('A' for Active; 'I' for Inactive)
REMARK    1  A    between atoms: _1  and  _3
REMARK    2  A    between atoms: _3  and  _4
REMARK    3  A    between atoms: _3  and  _6
REMARK    4  A    between atoms: _6  and  _7
REMARK    5  A    between atoms: _12  and  _14
REMARK    6  A    between atoms: _14  and  _15
REMARK    7  A    between atoms: _14  and  _17
REMARK    8  A    between atoms: _17  and  _18
REMARK    9  A    between atoms: _24  and  _26
REMARK   10  A    between atoms: _26  and  _27
REMARK   11  A    between atoms: _26  and  _29
REMARK   12  A    between atoms: _29  and  _30
REMARK   13  A    between atoms: _35  and  _36
REMARK   14  A    between atoms: _38  and  _40
REMARK   15  A    between atoms: _40  and  _41
REMARK   16  A    between atoms: _44  and  _46
REMARK   17  A    between atoms: _46  and  _47
REMARK   18  A    between atoms: _46  and  _49
REMARK   19  A    between atoms: _49  and  _50
REMARK   20  A    between atoms: _60  and  _62
REMARK   21  A    between atoms: _73  and  _76
REMARK   22  A    between atoms: _76  and  _77
REMARK   23  A    between atoms: _81  and  _82
REMARK   24  A    between atoms: _90  and  _92
REMARK   25  A    between atoms: _92  and  _93
REMARK   26  A    between atoms: _92  and  _95
REMARK   27  A    between atoms: _95  and  _96
REMARK   28  A    between atoms: _99  and  _101
REMARK   29  A    between atoms: _101  and  _102
REMARK   30  A    between atoms: _101  and  _104
REMARK   31  A    between atoms: _104  and  _105
REMARK   32  A    between atoms: _105  and  _107
REMARK   33  A    between atoms: _107  and  ZN_291
REMARK   34  A    between atoms: _108  and  _110
REMARK   35  A    between atoms: _110  and  _111
REMARK   36  A    between atoms: _110  and  _113
REMARK   37  A    between atoms: _113  and  _114
REMARK   38  A    between atoms: _114  and  _115
REMARK   39  A    between atoms: _115  and  _116
REMARK   40  A    between atoms: _125  and  _127
REMARK   41  A    between atoms: _127  and  _128
REMARK   42  A    between atoms: _131  and  _133
REMARK   43  A    between atoms: _133  and  _134
REMARK   44  A    between atoms: _136  and  _138
REMARK   45  A    between atoms: _138  and  _139
REMARK   46  A    between atoms: _138  and  _141
REMARK   47  A    between atoms: _141  and  _142
REMARK   48  A    between atoms: _145  and  _147
REMARK   49  A    between atoms: _147  and  _148
REMARK   50  A    between atoms: _147  and  _150
REMARK   51  A    between atoms: _150  and  _151
REMARK   52  A    between atoms: _151  and  _152
REMARK   53  A    between atoms: _155  and  _157
REMARK   54  A    between atoms: _157  and  _158
REMARK   55  A    between atoms: _157  and  _160
REMARK   56  A    between atoms: _160  and  _161
REMARK   57  A    between atoms: _161  and  _162
REMARK   58  A    between atoms: _162  and  _163
REMARK   59  A    between atoms: _163  and  _164
REMARK   60  A    between atoms: _168  and  _170
REMARK   61  A    between atoms: _170  and  _171
REMARK   62  A    between atoms: _170  and  _173
REMARK   63  A    between atoms: _173  and  _174
REMARK   64  A    between atoms: _178  and  ZN_290
REMARK   65  A    between atoms: _179  and  _181
REMARK   66  A    between atoms: _181  and  _182
REMARK   67  A    between atoms: _181  and  _184
REMARK   68  A    between atoms: _184  and  _185
REMARK   69  A    between atoms: _188  and  _190
REMARK   70  A    between atoms: _190  and  _191
REMARK   71  A    between atoms: _193  and  _195
REMARK   72  A    between atoms: _195  and  _196
REMARK   73  A    between atoms: _195  and  _198
REMARK   74  A    between atoms: _198  and  _199
REMARK   75  A    between atoms: _199  and  ZN_291
REMARK   76  A    between atoms: _200  and  _202
REMARK   77  A    between atoms: _202  and  _203
REMARK   78  A    between atoms: _202  and  _205
REMARK   79  A    between atoms: _205  and  _206
REMARK   80  A    between atoms: _209  and  _211
REMARK   81  A    between atoms: _211  and  _212
REMARK   82  A    between atoms: _211  and  _214
REMARK   83  A    between atoms: _214  and  _215
REMARK   84  A    between atoms: _215  and  _216
REMARK   85  A    between atoms: _216  and  _217
REMARK   86  A    between atoms: _217  and  _218
REMARK   87  A    between atoms: _222  and  _224
REMARK   88  A    between atoms: _224  and  _225
REMARK   89  A    between atoms: _224  and  _227
REMARK   90  A    between atoms: _227  and  _228
REMARK   91  A    between atoms: _231  and  _233
REMARK   92  A    between atoms: _233  and  _234
REMARK   93  A    between atoms: _236  and  _238
REMARK   94  A    between atoms: _238  and  _239
REMARK   95  A    between atoms: _238  and  _241
REMARK   96  A    between atoms: _241  and  _242
REMARK   97  A    between atoms: _247  and  _248
REMARK   98  A    between atoms: _250  and  _252
REMARK   99  A    between atoms: _252  and  _253
REMARK  100  A    between atoms: _252  and  _255
REMARK  101  A    between atoms: _255  and  _256
REMARK  102  A    between atoms: _259  and  _261
REMARK  103  A    between atoms: _261  and  _262
REMARK  104  A    between atoms: _264  and  _266
REMARK  105  A    between atoms: _266  and  _267
REMARK  106  A    between atoms: _266  and  _269
REMARK  107  A    between atoms: _269  and  _270
REMARK  108  A    between atoms: _270  and  _271
REMARK  109  A    between atoms: _274  and  _276
REMARK  110  A    between atoms: _276  and  _277
REMARK  111  A    between atoms: _279  and  _281
REMARK  112  A    between atoms: _281  and  _282
REMARK  113  A    between atoms: _281  and  _284
REMARK  114  A    between atoms: _284  and  _285
REMARK  115  A    between atoms: _289  and  ZN_291
REMARK                            x       y       z     vdW  Elec       q    Type
REMARK                         _______ _______ _______ _____ _____    ______ ____
ROOT
ATOM      1  O   HOH     1     -23.341  29.204   6.068  0.00  0.00    +0.000 OA
ENDROOT
TORSDOF 0
REMARK  Name = ../refined-set-2016/1m2x/1m2x_pocket.pdb
REMARK  115 active torsions:
REMARK  status: ('A' for Active; 'I' for Inactive)
REMARK    1  A    between atoms: _1  and  _3
REMARK    2  A    between atoms: _3  and  _4
REMARK    3  A    between atoms: _3  and  _6
REMARK    4  A    between atoms: _6  and  _7
REMARK    5  A    between atoms: _12  and  _14
REMARK    6  A    between atoms: _14  and  _15
REMARK    7  A    between atoms: _14  and  _17
REMARK    8  A    between atoms: _17  and  _18
REMARK    9  A    between atoms: _24  and  _26
REMARK   10  A    between atoms: _26  and  _27
REMARK   11  A    between atoms: _26  and  _29
REMARK   12  A    between atoms: _29  and  _30
REMARK   13  A    between atoms: _35  and  _36
REMARK   14  A    between atoms: _38  and  _40
REMARK   15  A    between atoms: _40  and  _41
REMARK   16  A    between atoms: _44  and  _46
REMARK   17  A    between atoms: _46  and  _47
REMARK   18  A    between atoms: _46  and  _49
REMARK   19  A    between atoms: _49  and  _50
REMARK   20  A    between atoms: _60  and  _62
REMARK   21  A    between atoms: _73  and  _76
REMARK   22  A    between atoms: _76  and  _77
REMARK   23  A    between atoms: _81  and  _82
REMARK   24  A    between atoms: _90  and  _92
REMARK   25  A    between atoms: _92  and  _93
REMARK   26  A    between atoms: _92  and  _95
REMARK   27  A    between atoms: _95  and  _96
REMARK   28  A    between atoms: _99  and  _101
REMARK   29  A    between atoms: _101  and  _102
REMARK   30  A    between atoms: _101  and  _104
REMARK   31  A    between atoms: _104  and  _105
REMARK   32  A    between atoms: _105  and  _107
REMARK   33  A    between atoms: _107  and  ZN_291
REMARK   34  A    between atoms: _108  and  _110
REMARK   35  A    between atoms: _110  and  _111
REMARK   36  A    between atoms: _110  and  _113
REMARK   37  A    between atoms: _113  and  _114
REMARK   38  A    between atoms: _114  and  _115
REMARK   39  A    between atoms: _115  and  _116
REMARK   40  A    between atoms: _125  and  _127
REMARK   41  A    between atoms: _127  and  _128
REMARK   42  A    between atoms: _131  and  _133
REMARK   43  A    between atoms: _133  and  _134
REMARK   44  A    between atoms: _136  and  _138
REMARK   45  A    between atoms: _138  and  _139
REMARK   46  A    between atoms: _138  and  _141
REMARK   47  A    between atoms: _141  and  _142
REMARK   48  A    between atoms: _145  and  _147
REMARK   49  A    between atoms: _147  and  _148
REMARK   50  A    between atoms: _147  and  _150
REMARK   51  A    between atoms: _150  and  _151
REMARK   52  A    between atoms: _151  and  _152
REMARK   53  A    between atoms: _155  and  _157
REMARK   54  A    between atoms: _157  and  _158
REMARK   55  A    between atoms: _157  and  _160
REMARK   56  A    between atoms: _160  and  _161
REMARK   57  A    between atoms: _161  and  _162
REMARK   58  A    between atoms: _162  and  _163
REMARK   59  A    between atoms: _163  and  _164
REMARK   60  A    between atoms: _168  and  _170
REMARK   61  A    between atoms: _170  and  _171
REMARK   62  A    between atoms: _170  and  _173
REMARK   63  A    between atoms: _173  and  _174
REMARK   64  A    between atoms: _178  and  ZN_290
REMARK   65  A    between atoms: _179  and  _181
REMARK   66  A    between atoms: _181  and  _182
REMARK   67  A    between atoms: _181  and  _184
REMARK   68  A    between atoms: _184  and  _185
REMARK   69  A    between atoms: _188  and  _190
REMARK   70  A    between atoms: _190  and  _191
REMARK   71  A    between atoms: _193  and  _195
REMARK   72  A    between atoms: _195  and  _196
REMARK   73  A    between atoms: _195  and  _198
REMARK   74  A    between atoms: _198  and  _199
REMARK   75  A    between atoms: _199  and  ZN_291
REMARK   76  A    between atoms: _200  and  _202
REMARK   77  A    between atoms: _202  and  _203
REMARK   78  A    between atoms: _202  and  _205
REMARK   79  A    between atoms: _205  and  _206
REMARK   80  A    between atoms: _209  and  _211
REMARK   81  A    between atoms: _211  and  _212
REMARK   82  A    between atoms: _211  and  _214
REMARK   83  A    between atoms: _214  and  _215
REMARK   84  A    between atoms: _215  and  _216
REMARK   85  A    between atoms: _216  and  _217
REMARK   86  A    between atoms: _217  and  _218
REMARK   87  A    between atoms: _222  and  _224
REMARK   88  A    between atoms: _224  and  _225
REMARK   89  A    between atoms: _224  and  _227
REMARK   90  A    between atoms: _227  and  _228
REMARK   91  A    between atoms: _231  and  _233
REMARK   92  A    between atoms: _233  and  _234
REMARK   93  A    between atoms: _236  and  _238
REMARK   94  A    between atoms: _238  and  _239
REMARK   95  A    between atoms: _238  and  _241
REMARK   96  A    between atoms: _241  and  _242
REMARK   97  A    between atoms: _247  and  _248
REMARK   98  A    between atoms: _250  and  _252
REMARK   99  A    between atoms: _252  and  _253
REMARK  100  A    between atoms: _252  and  _255
REMARK  101  A    between atoms: _255  and  _256
REMARK  102  A    between atoms: _259  and  _261
REMARK  103  A    between atoms: _261  and  _262
REMARK  104  A    between atoms: _264  and  _266
REMARK  105  A    between atoms: _266  and  _267
REMARK  106  A    between atoms: _266  and  _269
REMARK  107  A    between atoms: _269  and  _270
REMARK  108  A    between atoms: _270  and  _271
REMARK  109  A    between atoms: _274  and  _276
REMARK  110  A    between atoms: _276  and  _277
REMARK  111  A    between atoms: _279  and  _281
REMARK  112  A    between atoms: _281  and  _282
REMARK  113  A    between atoms: _281  and  _284
REMARK  114  A    between atoms: _284  and  _285
REMARK  115  A    between atoms: _289  and  ZN_291
REMARK                            x       y       z     vdW  Elec       q    Type
REMARK                         _______ _______ _______ _____ _____    ______ ____
ROOT
ATOM      1  O   HOH     1     -14.460  39.304   8.701  0.00  0.00    +0.000 OA
ENDROOT
TORSDOF 0
REMARK  Name = ../refined-set-2016/1m2x/1m2x_pocket.pdb
REMARK  115 active torsions:
REMARK  status: ('A' for Active; 'I' for Inactive)
REMARK    1  A    between atoms: _1  and  _3
REMARK    2  A    between atoms: _3  and  _4
REMARK    3  A    between atoms: _3  and  _6
REMARK    4  A    between atoms: _6  and  _7
REMARK    5  A    between atoms: _12  and  _14
REMARK    6  A    between atoms: _14  and  _15
REMARK    7  A    between atoms: _14  and  _17
REMARK    8  A    between atoms: _17  and  _18
REMARK    9  A    between atoms: _24  and  _26
REMARK   10  A    between atoms: _26  and  _27
REMARK   11  A    between atoms: _26  and  _29
REMARK   12  A    between atoms: _29  and  _30
REMARK   13  A    between atoms: _35  and  _36
REMARK   14  A    between atoms: _38  and  _40
REMARK   15  A    between atoms: _40  and  _41
REMARK   16  A    between atoms: _44  and  _46
REMARK   17  A    between atoms: _46  and  _47
REMARK   18  A    between atoms: _46  and  _49
REMARK   19  A    between atoms: _49  and  _50
REMARK   20  A    between atoms: _60  and  _62
REMARK   21  A    between atoms: _73  and  _76
REMARK   22  A    between atoms: _76  and  _77
REMARK   23  A    between atoms: _81  and  _82
REMARK   24  A    between atoms: _90  and  _92
REMARK   25  A    between atoms: _92  and  _93
REMARK   26  A    between atoms: _92  and  _95
REMARK   27  A    between atoms: _95  and  _96
REMARK   28  A    between atoms: _99  and  _101
REMARK   29  A    between atoms: _101  and  _102
REMARK   30  A    between atoms: _101  and  _104
REMARK   31  A    between atoms: _104  and  _105
REMARK   32  A    between atoms: _105  and  _107
REMARK   33  A    between atoms: _107  and  ZN_291
REMARK   34  A    between atoms: _108  and  _110
REMARK   35  A    between atoms: _110  and  _111
REMARK   36  A    between atoms: _110  and  _113
REMARK   37  A    between atoms: _113  and  _114
REMARK   38  A    between atoms: _114  and  _115
REMARK   39  A    between atoms: _115  and  _116
REMARK   40  A    between atoms: _125  and  _127
REMARK   41  A    between atoms: _127  and  _128
REMARK   42  A    between atoms: _131  and  _133
REMARK   43  A    between atoms: _133  and  _134
REMARK   44  A    between atoms: _136  and  _138
REMARK   45  A    between atoms: _138  and  _139
REMARK   46  A    between atoms: _138  and  _141
REMARK   47  A    between atoms: _141  and  _142
REMARK   48  A    between atoms: _145  and  _147
REMARK   49  A    between atoms: _147  and  _148
REMARK   50  A    between atoms: _147  and  _150
REMARK   51  A    between atoms: _150  and  _151
REMARK   52  A    between atoms: _151  and  _152
REMARK   53  A    between atoms: _155  and  _157
REMARK   54  A    between atoms: _157  and  _158
REMARK   55  A    between atoms: _157  and  _160
REMARK   56  A    between atoms: _160  and  _161
REMARK   57  A    between atoms: _161  and  _162
REMARK   58  A    between atoms: _162  and  _163
REMARK   59  A    between atoms: _163  and  _164
REMARK   60  A    between atoms: _168  and  _170
REMARK   61  A    between atoms: _170  and  _171
REMARK   62  A    between atoms: _170  and  _173
REMARK   63  A    between atoms: _173  and  _174
REMARK   64  A    between atoms: _178  and  ZN_290
REMARK   65  A    between atoms: _179  and  _181
REMARK   66  A    between atoms: _181  and  _182
REMARK   67  A    between atoms: _181  and  _184
REMARK   68  A    between atoms: _184  and  _185
REMARK   69  A    between atoms: _188  and  _190
REMARK   70  A    between atoms: _190  and  _191
REMARK   71  A    between atoms: _193  and  _195
REMARK   72  A    between atoms: _195  and  _196
REMARK   73  A    between atoms: _195  and  _198
REMARK   74  A    between atoms: _198  and  _199
REMARK   75  A    between atoms: _199  and  ZN_291
REMARK   76  A    between atoms: _200  and  _202
REMARK   77  A    between atoms: _202  and  _203
REMARK   78  A    between atoms: _202  and  _205
REMARK   79  A    between atoms: _205  and  _206
REMARK   80  A    between atoms: _209  and  _211
REMARK   81  A    between atoms: _211  and  _212
REMARK   82  A    between atoms: _211  and  _214
REMARK   83  A    between atoms: _214  and  _215
REMARK   84  A    between atoms: _215  and  _216
REMARK   85  A    between atoms: _216  and  _217
REMARK   86  A    between atoms: _217  and  _218
REMARK   87  A    between atoms: _222  and  _224
REMARK   88  A    between atoms: _224  and  _225
REMARK   89  A    between atoms: _224  and  _227
REMARK   90  A    between atoms: _227  and  _228
REMARK   91  A    between atoms: _231  and  _233
REMARK   92  A    between atoms: _233  and  _234
REMARK   93  A    between atoms: _236  and  _238
REMARK   94  A    between atoms: _238  and  _239
REMARK   95  A    between atoms: _238  and  _241
REMARK   96  A    between atoms: _241  and  _242
REMARK   97  A    between atoms: _247  and  _248
REMARK   98  A    between atoms: _250  and  _252
REMARK   99  A    between atoms: _252  and  _253
REMARK  100  A    between atoms: _252  and  _255
REMARK  101  A    between atoms: _255  and  _256
REMARK  102  A    between atoms: _259  and  _261
REMARK  103  A    between atoms: _261  and  _262
REMARK  104  A    between atoms: _264  and  _266
REMARK  105  A    between atoms: _266  and  _267
REMARK  106  A    between atoms: _266  and  _269
REMARK  107  A    between atoms: _269  and  _270
REMARK  108  A    between atoms: _270  and  _271
REMARK  109  A    between atoms: _274  and  _276
REMARK  110  A    between atoms: _276  and  _277
REMARK  111  A    between atoms: _279  and  _281
REMARK  112  A    between atoms: _281  and  _282
REMARK  113  A    between atoms: _281  and  _284
REMARK  114  A    between atoms: _284  and  _285
REMARK  115  A    between atoms: _289  and  ZN_291
REMARK                            x       y       z     vdW  Elec       q    Type
REMARK                         _______ _______ _______ _____ _____    ______ ____
ROOT
ATOM      1  O   HOH     1     -17.939  34.430  13.073  0.00  0.00    +0.000 OA
ENDROOT
TORSDOF 0
REMARK  Name = ../refined-set-2016/1m2x/1m2x_pocket.pdb
REMARK  115 active torsions:
REMARK  status: ('A' for Active; 'I' for Inactive)
REMARK    1  A    between atoms: _1  and  _3
REMARK    2  A    between atoms: _3  and  _4
REMARK    3  A    between atoms: _3  and  _6
REMARK    4  A    between atoms: _6  and  _7
REMARK    5  A    between atoms: _12  and  _14
REMARK    6  A    between atoms: _14  and  _15
REMARK    7  A    between atoms: _14  and  _17
REMARK    8  A    between atoms: _17  and  _18
REMARK    9  A    between atoms: _24  and  _26
REMARK   10  A    between atoms: _26  and  _27
REMARK   11  A    between atoms: _26  and  _29
REMARK   12  A    between atoms: _29  and  _30
REMARK   13  A    between atoms: _35  and  _36
REMARK   14  A    between atoms: _38  and  _40
REMARK   15  A    between atoms: _40  and  _41
REMARK   16  A    between atoms: _44  and  _46
REMARK   17  A    between atoms: _46  and  _47
REMARK   18  A    between atoms: _46  and  _49
REMARK   19  A    between atoms: _49  and  _50
REMARK   20  A    between atoms: _60  and  _62
REMARK   21  A    between atoms: _73  and  _76
REMARK   22  A    between atoms: _76  and  _77
REMARK   23  A    between atoms: _81  and  _82
REMARK   24  A    between atoms: _90  and  _92
REMARK   25  A    between atoms: _92  and  _93
REMARK   26  A    between atoms: _92  and  _95
REMARK   27  A    between atoms: _95  and  _96
REMARK   28  A    between atoms: _99  and  _101
REMARK   29  A    between atoms: _101  and  _102
REMARK   30  A    between atoms: _101  and  _104
REMARK   31  A    between atoms: _104  and  _105
REMARK   32  A    between atoms: _105  and  _107
REMARK   33  A    between atoms: _107  and  ZN_291
REMARK   34  A    between atoms: _108  and  _110
REMARK   35  A    between atoms: _110  and  _111
REMARK   36  A    between atoms: _110  and  _113
REMARK   37  A    between atoms: _113  and  _114
REMARK   38  A    between atoms: _114  and  _115
REMARK   39  A    between atoms: _115  and  _116
REMARK   40  A    between atoms: _125  and  _127
REMARK   41  A    between atoms: _127  and  _128
REMARK   42  A    between atoms: _131  and  _133
REMARK   43  A    between atoms: _133  and  _134
REMARK   44  A    between atoms: _136  and  _138
REMARK   45  A    between atoms: _138  and  _139
REMARK   46  A    between atoms: _138  and  _141
REMARK   47  A    between atoms: _141  and  _142
REMARK   48  A    between atoms: _145  and  _147
REMARK   49  A    between atoms: _147  and  _148
REMARK   50  A    between atoms: _147  and  _150
REMARK   51  A    between atoms: _150  and  _151
REMARK   52  A    between atoms: _151  and  _152
REMARK   53  A    between atoms: _155  and  _157
REMARK   54  A    between atoms: _157  and  _158
REMARK   55  A    between atoms: _157  and  _160
REMARK   56  A    between atoms: _160  and  _161
REMARK   57  A    between atoms: _161  and  _162
REMARK   58  A    between atoms: _162  and  _163
REMARK   59  A    between atoms: _163  and  _164
REMARK   60  A    between atoms: _168  and  _170
REMARK   61  A    between atoms: _170  and  _171
REMARK   62  A    between atoms: _170  and  _173
REMARK   63  A    between atoms: _173  and  _174
REMARK   64  A    between atoms: _178  and  ZN_290
REMARK   65  A    between atoms: _179  and  _181
REMARK   66  A    between atoms: _181  and  _182
REMARK   67  A    between atoms: _181  and  _184
REMARK   68  A    between atoms: _184  and  _185
REMARK   69  A    between atoms: _188  and  _190
REMARK   70  A    between atoms: _190  and  _191
REMARK   71  A    between atoms: _193  and  _195
REMARK   72  A    between atoms: _195  and  _196
REMARK   73  A    between atoms: _195  and  _198
REMARK   74  A    between atoms: _198  and  _199
REMARK   75  A    between atoms: _199  and  ZN_291
REMARK   76  A    between atoms: _200  and  _202
REMARK   77  A    between atoms: _202  and  _203
REMARK   78  A    between atoms: _202  and  _205
REMARK   79  A    between atoms: _205  and  _206
REMARK   80  A    between atoms: _209  and  _211
REMARK   81  A    between atoms: _211  and  _212
REMARK   82  A    between atoms: _211  and  _214
REMARK   83  A    between atoms: _214  and  _215
REMARK   84  A    between atoms: _215  and  _216
REMARK   85  A    between atoms: _216  and  _217
REMARK   86  A    between atoms: _217  and  _218
REMARK   87  A    between atoms: _222  and  _224
REMARK   88  A    between atoms: _224  and  _225
REMARK   89  A    between atoms: _224  and  _227
REMARK   90  A    between atoms: _227  and  _228
REMARK   91  A    between atoms: _231  and  _233
REMARK   92  A    between atoms: _233  and  _234
REMARK   93  A    between atoms: _236  and  _238
REMARK   94  A    between atoms: _238  and  _239
REMARK   95  A    between atoms: _238  and  _241
REMARK   96  A    between atoms: _241  and  _242
REMARK   97  A    between atoms: _247  and  _248
REMARK   98  A    between atoms: _250  and  _252
REMARK   99  A    between atoms: _252  and  _253
REMARK  100  A    between atoms: _252  and  _255
REMARK  101  A    between atoms: _255  and  _256
REMARK  102  A    between atoms: _259  and  _261
REMARK  103  A    between atoms: _261  and  _262
REMARK  104  A    between atoms: _264  and  _266
REMARK  105  A    between atoms: _266  and  _267
REMARK  106  A    between atoms: _266  and  _269
REMARK  107  A    between atoms: _269  and  _270
REMARK  108  A    between atoms: _270  and  _271
REMARK  109  A    between atoms: _274  and  _276
REMARK  110  A    between atoms: _276  and  _277
REMARK  111  A    between atoms: _279  and  _281
REMARK  112  A    between atoms: _281  and  _282
REMARK  113  A    between atoms: _281  and  _284
REMARK  114  A    between atoms: _284  and  _285
REMARK  115  A    between atoms: _289  and  ZN_291
REMARK                            x       y       z     vdW  Elec       q    Type
REMARK                         _______ _______ _______ _____ _____    ______ ____
ROOT
ATOM      1  O   HOH     1     -16.420  37.382   9.852  0.00  0.00    +0.000 OA
ENDROOT
TORSDOF 0
REMARK  Name = ../refined-set-2016/1m2x/1m2x_pocket.pdb
REMARK  115 active torsions:
REMARK  status: ('A' for Active; 'I' for Inactive)
REMARK    1  A    between atoms: _1  and  _3
REMARK    2  A    between atoms: _3  and  _4
REMARK    3  A    between atoms: _3  and  _6
REMARK    4  A    between atoms: _6  and  _7
REMARK    5  A    between atoms: _12  and  _14
REMARK    6  A    between atoms: _14  and  _15
REMARK    7  A    between atoms: _14  and  _17
REMARK    8  A    between atoms: _17  and  _18
REMARK    9  A    between atoms: _24  and  _26
REMARK   10  A    between atoms: _26  and  _27
REMARK   11  A    between atoms: _26  and  _29
REMARK   12  A    between atoms: _29  and  _30
REMARK   13  A    between atoms: _35  and  _36
REMARK   14  A    between atoms: _38  and  _40
REMARK   15  A    between atoms: _40  and  _41
REMARK   16  A    between atoms: _44  and  _46
REMARK   17  A    between atoms: _46  and  _47
REMARK   18  A    between atoms: _46  and  _49
REMARK   19  A    between atoms: _49  and  _50
REMARK   20  A    between atoms: _60  and  _62
REMARK   21  A    between atoms: _73  and  _76
REMARK   22  A    between atoms: _76  and  _77
REMARK   23  A    between atoms: _81  and  _82
REMARK   24  A    between atoms: _90  and  _92
REMARK   25  A    between atoms: _92  and  _93
REMARK   26  A    between atoms: _92  and  _95
REMARK   27  A    between atoms: _95  and  _96
REMARK   28  A    between atoms: _99  and  _101
REMARK   29  A    between atoms: _101  and  _102
REMARK   30  A    between atoms: _101  and  _104
REMARK   31  A    between atoms: _104  and  _105
REMARK   32  A    between atoms: _105  and  _107
REMARK   33  A    between atoms: _107  and  ZN_291
REMARK   34  A    between atoms: _108  and  _110
REMARK   35  A    between atoms: _110  and  _111
REMARK   36  A    between atoms: _110  and  _113
REMARK   37  A    between atoms: _113  and  _114
REMARK   38  A    between atoms: _114  and  _115
REMARK   39  A    between atoms: _115  and  _116
REMARK   40  A    between atoms: _125  and  _127
REMARK   41  A    between atoms: _127  and  _128
REMARK   42  A    between atoms: _131  and  _133
REMARK   43  A    between atoms: _133  and  _134
REMARK   44  A    between atoms: _136  and  _138
REMARK   45  A    between atoms: _138  and  _139
REMARK   46  A    between atoms: _138  and  _141
REMARK   47  A    between atoms: _141  and  _142
REMARK   48  A    between atoms: _145  and  _147
REMARK   49  A    between atoms: _147  and  _148
REMARK   50  A    between atoms: _147  and  _150
REMARK   51  A    between atoms: _150  and  _151
REMARK   52  A    between atoms: _151  and  _152
REMARK   53  A    between atoms: _155  and  _157
REMARK   54  A    between atoms: _157  and  _158
REMARK   55  A    between atoms: _157  and  _160
REMARK   56  A    between atoms: _160  and  _161
REMARK   57  A    between atoms: _161  and  _162
REMARK   58  A    between atoms: _162  and  _163
REMARK   59  A    between atoms: _163  and  _164
REMARK   60  A    between atoms: _168  and  _170
REMARK   61  A    between atoms: _170  and  _171
REMARK   62  A    between atoms: _170  and  _173
REMARK   63  A    between atoms: _173  and  _174
REMARK   64  A    between atoms: _178  and  ZN_290
REMARK   65  A    between atoms: _179  and  _181
REMARK   66  A    between atoms: _181  and  _182
REMARK   67  A    between atoms: _181  and  _184
REMARK   68  A    between atoms: _184  and  _185
REMARK   69  A    between atoms: _188  and  _190
REMARK   70  A    between atoms: _190  and  _191
REMARK   71  A    between atoms: _193  and  _195
REMARK   72  A    between atoms: _195  and  _196
REMARK   73  A    between atoms: _195  and  _198
REMARK   74  A    between atoms: _198  and  _199
REMARK   75  A    between atoms: _199  and  ZN_291
REMARK   76  A    between atoms: _200  and  _202
REMARK   77  A    between atoms: _202  and  _203
REMARK   78  A    between atoms: _202  and  _205
REMARK   79  A    between atoms: _205  and  _206
REMARK   80  A    between atoms: _209  and  _211
REMARK   81  A    between atoms: _211  and  _212
REMARK   82  A    between atoms: _211  and  _214
REMARK   83  A    between atoms: _214  and  _215
REMARK   84  A    between atoms: _215  and  _216
REMARK   85  A    between atoms: _216  and  _217
REMARK   86  A    between atoms: _217  and  _218
REMARK   87  A    between atoms: _222  and  _224
REMARK   88  A    between atoms: _224  and  _225
REMARK   89  A    between atoms: _224  and  _227
REMARK   90  A    between atoms: _227  and  _228
REMARK   91  A    between atoms: _231  and  _233
REMARK   92  A    between atoms: _233  and  _234
REMARK   93  A    between atoms: _236  and  _238
REMARK   94  A    between atoms: _238  and  _239
REMARK   95  A    between atoms: _238  and  _241
REMARK   96  A    between atoms: _241  and  _242
REMARK   97  A    between atoms: _247  and  _248
REMARK   98  A    between atoms: _250  and  _252
REMARK   99  A    between atoms: _252  and  _253
REMARK  100  A    between atoms: _252  and  _255
REMARK  101  A    between atoms: _255  and  _256
REMARK  102  A    between atoms: _259  and  _261
REMARK  103  A    between atoms: _261  and  _262
REMARK  104  A    between atoms: _264  and  _266
REMARK  105  A    between atoms: _266  and  _267
REMARK  106  A    between atoms: _266  and  _269
REMARK  107  A    between atoms: _269  and  _270
REMARK  108  A    between atoms: _270  and  _271
REMARK  109  A    between atoms: _274  and  _276
REMARK  110  A    between atoms: _276  and  _277
REMARK  111  A    between atoms: _279  and  _281
REMARK  112  A    between atoms: _281  and  _282
REMARK  113  A    between atoms: _281  and  _284
REMARK  114  A    between atoms: _284  and  _285
REMARK  115  A    between atoms: _289  and  ZN_291
REMARK                            x       y       z     vdW  Elec       q    Type
REMARK                         _______ _______ _______ _____ _____    ______ ____
ROOT
ATOM      1  O   HOH     1     -27.919  30.936   5.825  0.00  0.00    +0.000 OA
ENDROOT
TORSDOF 0
REMARK  Name = ../refined-set-2016/1m2x/1m2x_pocket.pdb
REMARK  115 active torsions:
REMARK  status: ('A' for Active; 'I' for Inactive)
REMARK    1  A    between atoms: _1  and  _3
REMARK    2  A    between atoms: _3  and  _4
REMARK    3  A    between atoms: _3  and  _6
REMARK    4  A    between atoms: _6  and  _7
REMARK    5  A    between atoms: _12  and  _14
REMARK    6  A    between atoms: _14  and  _15
REMARK    7  A    between atoms: _14  and  _17
REMARK    8  A    between atoms: _17  and  _18
REMARK    9  A    between atoms: _24  and  _26
REMARK   10  A    between atoms: _26  and  _27
REMARK   11  A    between atoms: _26  and  _29
REMARK   12  A    between atoms: _29  and  _30
REMARK   13  A    between atoms: _35  and  _36
REMARK   14  A    between atoms: _38  and  _40
REMARK   15  A    between atoms: _40  and  _41
REMARK   16  A    between atoms: _44  and  _46
REMARK   17  A    between atoms: _46  and  _47
REMARK   18  A    between atoms: _46  and  _49
REMARK   19  A    between atoms: _49  and  _50
REMARK   20  A    between atoms: _60  and  _62
REMARK   21  A    between atoms: _73  and  _76
REMARK   22  A    between atoms: _76  and  _77
REMARK   23  A    between atoms: _81  and  _82
REMARK   24  A    between atoms: _90  and  _92
REMARK   25  A    between atoms: _92  and  _93
REMARK   26  A    between atoms: _92  and  _95
REMARK   27  A    between atoms: _95  and  _96
REMARK   28  A    between atoms: _99  and  _101
REMARK   29  A    between atoms: _101  and  _102
REMARK   30  A    between atoms: _101  and  _104
REMARK   31  A    between atoms: _104  and  _105
REMARK   32  A    between atoms: _105  and  _107
REMARK   33  A    between atoms: _107  and  ZN_291
REMARK   34  A    between atoms: _108  and  _110
REMARK   35  A    between atoms: _110  and  _111
REMARK   36  A    between atoms: _110  and  _113
REMARK   37  A    between atoms: _113  and  _114
REMARK   38  A    between atoms: _114  and  _115
REMARK   39  A    between atoms: _115  and  _116
REMARK   40  A    between atoms: _125  and  _127
REMARK   41  A    between atoms: _127  and  _128
REMARK   42  A    between atoms: _131  and  _133
REMARK   43  A    between atoms: _133  and  _134
REMARK   44  A    between atoms: _136  and  _138
REMARK   45  A    between atoms: _138  and  _139
REMARK   46  A    between atoms: _138  and  _141
REMARK   47  A    between atoms: _141  and  _142
REMARK   48  A    between atoms: _145  and  _147
REMARK   49  A    between atoms: _147  and  _148
REMARK   50  A    between atoms: _147  and  _150
REMARK   51  A    between atoms: _150  and  _151
REMARK   52  A    between atoms: _151  and  _152
REMARK   53  A    between atoms: _155  and  _157
REMARK   54  A    between atoms: _157  and  _158
REMARK   55  A    between atoms: _157  and  _160
REMARK   56  A    between atoms: _160  and  _161
REMARK   57  A    between atoms: _161  and  _162
REMARK   58  A    between atoms: _162  and  _163
REMARK   59  A    between atoms: _163  and  _164
REMARK   60  A    between atoms: _168  and  _170
REMARK   61  A    between atoms: _170  and  _171
REMARK   62  A    between atoms: _170  and  _173
REMARK   63  A    between atoms: _173  and  _174
REMARK   64  A    between atoms: _178  and  ZN_290
REMARK   65  A    between atoms: _179  and  _181
REMARK   66  A    between atoms: _181  and  _182
REMARK   67  A    between atoms: _181  and  _184
REMARK   68  A    between atoms: _184  and  _185
REMARK   69  A    between atoms: _188  and  _190
REMARK   70  A    between atoms: _190  and  _191
REMARK   71  A    between atoms: _193  and  _195
REMARK   72  A    between atoms: _195  and  _196
REMARK   73  A    between atoms: _195  and  _198
REMARK   74  A    between atoms: _198  and  _199
REMARK   75  A    between atoms: _199  and  ZN_291
REMARK   76  A    between atoms: _200  and  _202
REMARK   77  A    between atoms: _202  and  _203
REMARK   78  A    between atoms: _202  and  _205
REMARK   79  A    between atoms: _205  and  _206
REMARK   80  A    between atoms: _209  and  _211
REMARK   81  A    between atoms: _211  and  _212
REMARK   82  A    between atoms: _211  and  _214
REMARK   83  A    between atoms: _214  and  _215
REMARK   84  A    between atoms: _215  and  _216
REMARK   85  A    between atoms: _216  and  _217
REMARK   86  A    between atoms: _217  and  _218
REMARK   87  A    between atoms: _222  and  _224
REMARK   88  A    between atoms: _224  and  _225
REMARK   89  A    between atoms: _224  and  _227
REMARK   90  A    between atoms: _227  and  _228
REMARK   91  A    between atoms: _231  and  _233
REMARK   92  A    between atoms: _233  and  _234
REMARK   93  A    between atoms: _236  and  _238
REMARK   94  A    between atoms: _238  and  _239
REMARK   95  A    between atoms: _238  and  _241
REMARK   96  A    between atoms: _241  and  _242
REMARK   97  A    between atoms: _247  and  _248
REMARK   98  A    between atoms: _250  and  _252
REMARK   99  A    between atoms: _252  and  _253
REMARK  100  A    between atoms: _252  and  _255
REMARK  101  A    between atoms: _255  and  _256
REMARK  102  A    between atoms: _259  and  _261
REMARK  103  A    between atoms: _261  and  _262
REMARK  104  A    between atoms: _264  and  _266
REMARK  105  A    between atoms: _266  and  _267
REMARK  106  A    between atoms: _266  and  _269
REMARK  107  A    between atoms: _269  and  _270
REMARK  108  A    between atoms: _270  and  _271
REMARK  109  A    between atoms: _274  and  _276
REMARK  110  A    between atoms: _276  and  _277
REMARK  111  A    between atoms: _279  and  _281
REMARK  112  A    between atoms: _281  and  _282
REMARK  113  A    between atoms: _281  and  _284
REMARK  114  A    between atoms: _284  and  _285
REMARK  115  A    between atoms: _289  and  ZN_291
REMARK                            x       y       z     vdW  Elec       q    Type
REMARK                         _______ _______ _______ _____ _____    ______ ____
ROOT
ATOM      1  O   HOH     1     -17.686  40.865  12.826  0.00  0.00    +0.000 OA
ENDROOT
TORSDOF 0
REMARK  Name = ../refined-set-2016/1m2x/1m2x_pocket.pdb
REMARK  115 active torsions:
REMARK  status: ('A' for Active; 'I' for Inactive)
REMARK    1  A    between atoms: _1  and  _3
REMARK    2  A    between atoms: _3  and  _4
REMARK    3  A    between atoms: _3  and  _6
REMARK    4  A    between atoms: _6  and  _7
REMARK    5  A    between atoms: _12  and  _14
REMARK    6  A    between atoms: _14  and  _15
REMARK    7  A    between atoms: _14  and  _17
REMARK    8  A    between atoms: _17  and  _18
REMARK    9  A    between atoms: _24  and  _26
REMARK   10  A    between atoms: _26  and  _27
REMARK   11  A    between atoms: _26  and  _29
REMARK   12  A    between atoms: _29  and  _30
REMARK   13  A    between atoms: _35  and  _36
REMARK   14  A    between atoms: _38  and  _40
REMARK   15  A    between atoms: _40  and  _41
REMARK   16  A    between atoms: _44  and  _46
REMARK   17  A    between atoms: _46  and  _47
REMARK   18  A    between atoms: _46  and  _49
REMARK   19  A    between atoms: _49  and  _50
REMARK   20  A    between atoms: _60  and  _62
REMARK   21  A    between atoms: _73  and  _76
REMARK   22  A    between atoms: _76  and  _77
REMARK   23  A    between atoms: _81  and  _82
REMARK   24  A    between atoms: _90  and  _92
REMARK   25  A    between atoms: _92  and  _93
REMARK   26  A    between atoms: _92  and  _95
REMARK   27  A    between atoms: _95  and  _96
REMARK   28  A    between atoms: _99  and  _101
REMARK   29  A    between atoms: _101  and  _102
REMARK   30  A    between atoms: _101  and  _104
REMARK   31  A    between atoms: _104  and  _105
REMARK   32  A    between atoms: _105  and  _107
REMARK   33  A    between atoms: _107  and  ZN_291
REMARK   34  A    between atoms: _108  and  _110
REMARK   35  A    between atoms: _110  and  _111
REMARK   36  A    between atoms: _110  and  _113
REMARK   37  A    between atoms: _113  and  _114
REMARK   38  A    between atoms: _114  and  _115
REMARK   39  A    between atoms: _115  and  _116
REMARK   40  A    between atoms: _125  and  _127
REMARK   41  A    between atoms: _127  and  _128
REMARK   42  A    between atoms: _131  and  _133
REMARK   43  A    between atoms: _133  and  _134
REMARK   44  A    between atoms: _136  and  _138
REMARK   45  A    between atoms: _138  and  _139
REMARK   46  A    between atoms: _138  and  _141
REMARK   47  A    between atoms: _141  and  _142
REMARK   48  A    between atoms: _145  and  _147
REMARK   49  A    between atoms: _147  and  _148
REMARK   50  A    between atoms: _147  and  _150
REMARK   51  A    between atoms: _150  and  _151
REMARK   52  A    between atoms: _151  and  _152
REMARK   53  A    between atoms: _155  and  _157
REMARK   54  A    between atoms: _157  and  _158
REMARK   55  A    between atoms: _157  and  _160
REMARK   56  A    between atoms: _160  and  _161
REMARK   57  A    between atoms: _161  and  _162
REMARK   58  A    between atoms: _162  and  _163
REMARK   59  A    between atoms: _163  and  _164
REMARK   60  A    between atoms: _168  and  _170
REMARK   61  A    between atoms: _170  and  _171
REMARK   62  A    between atoms: _170  and  _173
REMARK   63  A    between atoms: _173  and  _174
REMARK   64  A    between atoms: _178  and  ZN_290
REMARK   65  A    between atoms: _179  and  _181
REMARK   66  A    between atoms: _181  and  _182
REMARK   67  A    between atoms: _181  and  _184
REMARK   68  A    between atoms: _184  and  _185
REMARK   69  A    between atoms: _188  and  _190
REMARK   70  A    between atoms: _190  and  _191
REMARK   71  A    between atoms: _193  and  _195
REMARK   72  A    between atoms: _195  and  _196
REMARK   73  A    between atoms: _195  and  _198
REMARK   74  A    between atoms: _198  and  _199
REMARK   75  A    between atoms: _199  and  ZN_291
REMARK   76  A    between atoms: _200  and  _202
REMARK   77  A    between atoms: _202  and  _203
REMARK   78  A    between atoms: _202  and  _205
REMARK   79  A    between atoms: _205  and  _206
REMARK   80  A    between atoms: _209  and  _211
REMARK   81  A    between atoms: _211  and  _212
REMARK   82  A    between atoms: _211  and  _214
REMARK   83  A    between atoms: _214  and  _215
REMARK   84  A    between atoms: _215  and  _216
REMARK   85  A    between atoms: _216  and  _217
REMARK   86  A    between atoms: _217  and  _218
REMARK   87  A    between atoms: _222  and  _224
REMARK   88  A    between atoms: _224  and  _225
REMARK   89  A    between atoms: _224  and  _227
REMARK   90  A    between atoms: _227  and  _228
REMARK   91  A    between atoms: _231  and  _233
REMARK   92  A    between atoms: _233  and  _234
REMARK   93  A    between atoms: _236  and  _238
REMARK   94  A    between atoms: _238  and  _239
REMARK   95  A    between atoms: _238  and  _241
REMARK   96  A    between atoms: _241  and  _242
REMARK   97  A    between atoms: _247  and  _248
REMARK   98  A    between atoms: _250  and  _252
REMARK   99  A    between atoms: _252  and  _253
REMARK  100  A    between atoms: _252  and  _255
REMARK  101  A    between atoms: _255  and  _256
REMARK  102  A    between atoms: _259  and  _261
REMARK  103  A    between atoms: _261  and  _262
REMARK  104  A    between atoms: _264  and  _266
REMARK  105  A    between atoms: _266  and  _267
REMARK  106  A    between atoms: _266  and  _269
REMARK  107  A    between atoms: _269  and  _270
REMARK  108  A    between atoms: _270  and  _271
REMARK  109  A    between atoms: _274  and  _276
REMARK  110  A    between atoms: _276  and  _277
REMARK  111  A    between atoms: _279  and  _281
REMARK  112  A    between atoms: _281  and  _282
REMARK  113  A    between atoms: _281  and  _284
REMARK  114  A    between atoms: _284  and  _285
REMARK  115  A    between atoms: _289  and  ZN_291
REMARK                            x       y       z     vdW  Elec       q    Type
REMARK                         _______ _______ _______ _____ _____    ______ ____
ROOT
ATOM      1  O   HOH     1     -27.744  40.944   0.943  0.00  0.00    +0.000 OA
ENDROOT
TORSDOF 0
REMARK  Name = ../refined-set-2016/1m2x/1m2x_pocket.pdb
REMARK  115 active torsions:
REMARK  status: ('A' for Active; 'I' for Inactive)
REMARK    1  A    between atoms: _1  and  _3
REMARK    2  A    between atoms: _3  and  _4
REMARK    3  A    between atoms: _3  and  _6
REMARK    4  A    between atoms: _6  and  _7
REMARK    5  A    between atoms: _12  and  _14
REMARK    6  A    between atoms: _14  and  _15
REMARK    7  A    between atoms: _14  and  _17
REMARK    8  A    between atoms: _17  and  _18
REMARK    9  A    between atoms: _24  and  _26
REMARK   10  A    between atoms: _26  and  _27
REMARK   11  A    between atoms: _26  and  _29
REMARK   12  A    between atoms: _29  and  _30
REMARK   13  A    between atoms: _35  and  _36
REMARK   14  A    between atoms: _38  and  _40
REMARK   15  A    between atoms: _40  and  _41
REMARK   16  A    between atoms: _44  and  _46
REMARK   17  A    between atoms: _46  and  _47
REMARK   18  A    between atoms: _46  and  _49
REMARK   19  A    between atoms: _49  and  _50
REMARK   20  A    between atoms: _60  and  _62
REMARK   21  A    between atoms: _73  and  _76
REMARK   22  A    between atoms: _76  and  _77
REMARK   23  A    between atoms: _81  and  _82
REMARK   24  A    between atoms: _90  and  _92
REMARK   25  A    between atoms: _92  and  _93
REMARK   26  A    between atoms: _92  and  _95
REMARK   27  A    between atoms: _95  and  _96
REMARK   28  A    between atoms: _99  and  _101
REMARK   29  A    between atoms: _101  and  _102
REMARK   30  A    between atoms: _101  and  _104
REMARK   31  A    between atoms: _104  and  _105
REMARK   32  A    between atoms: _105  and  _107
REMARK   33  A    between atoms: _107  and  ZN_291
REMARK   34  A    between atoms: _108  and  _110
REMARK   35  A    between atoms: _110  and  _111
REMARK   36  A    between atoms: _110  and  _113
REMARK   37  A    between atoms: _113  and  _114
REMARK   38  A    between atoms: _114  and  _115
REMARK   39  A    between atoms: _115  and  _116
REMARK   40  A    between atoms: _125  and  _127
REMARK   41  A    between atoms: _127  and  _128
REMARK   42  A    between atoms: _131  and  _133
REMARK   43  A    between atoms: _133  and  _134
REMARK   44  A    between atoms: _136  and  _138
REMARK   45  A    between atoms: _138  and  _139
REMARK   46  A    between atoms: _138  and  _141
REMARK   47  A    between atoms: _141  and  _142
REMARK   48  A    between atoms: _145  and  _147
REMARK   49  A    between atoms: _147  and  _148
REMARK   50  A    between atoms: _147  and  _150
REMARK   51  A    between atoms: _150  and  _151
REMARK   52  A    between atoms: _151  and  _152
REMARK   53  A    between atoms: _155  and  _157
REMARK   54  A    between atoms: _157  and  _158
REMARK   55  A    between atoms: _157  and  _160
REMARK   56  A    between atoms: _160  and  _161
REMARK   57  A    between atoms: _161  and  _162
REMARK   58  A    between atoms: _162  and  _163
REMARK   59  A    between atoms: _163  and  _164
REMARK   60  A    between atoms: _168  and  _170
REMARK   61  A    between atoms: _170  and  _171
REMARK   62  A    between atoms: _170  and  _173
REMARK   63  A    between atoms: _173  and  _174
REMARK   64  A    between atoms: _178  and  ZN_290
REMARK   65  A    between atoms: _179  and  _181
REMARK   66  A    between atoms: _181  and  _182
REMARK   67  A    between atoms: _181  and  _184
REMARK   68  A    between atoms: _184  and  _185
REMARK   69  A    between atoms: _188  and  _190
REMARK   70  A    between atoms: _190  and  _191
REMARK   71  A    between atoms: _193  and  _195
REMARK   72  A    between atoms: _195  and  _196
REMARK   73  A    between atoms: _195  and  _198
REMARK   74  A    between atoms: _198  and  _199
REMARK   75  A    between atoms: _199  and  ZN_291
REMARK   76  A    between atoms: _200  and  _202
REMARK   77  A    between atoms: _202  and  _203
REMARK   78  A    between atoms: _202  and  _205
REMARK   79  A    between atoms: _205  and  _206
REMARK   80  A    between atoms: _209  and  _211
REMARK   81  A    between atoms: _211  and  _212
REMARK   82  A    between atoms: _211  and  _214
REMARK   83  A    between atoms: _214  and  _215
REMARK   84  A    between atoms: _215  and  _216
REMARK   85  A    between atoms: _216  and  _217
REMARK   86  A    between atoms: _217  and  _218
REMARK   87  A    between atoms: _222  and  _224
REMARK   88  A    between atoms: _224  and  _225
REMARK   89  A    between atoms: _224  and  _227
REMARK   90  A    between atoms: _227  and  _228
REMARK   91  A    between atoms: _231  and  _233
REMARK   92  A    between atoms: _233  and  _234
REMARK   93  A    between atoms: _236  and  _238
REMARK   94  A    between atoms: _238  and  _239
REMARK   95  A    between atoms: _238  and  _241
REMARK   96  A    between atoms: _241  and  _242
REMARK   97  A    between atoms: _247  and  _248
REMARK   98  A    between atoms: _250  and  _252
REMARK   99  A    between atoms: _252  and  _253
REMARK  100  A    between atoms: _252  and  _255
REMARK  101  A    between atoms: _255  and  _256
REMARK  102  A    between atoms: _259  and  _261
REMARK  103  A    between atoms: _261  and  _262
REMARK  104  A    between atoms: _264  and  _266
REMARK  105  A    between atoms: _266  and  _267
REMARK  106  A    between atoms: _266  and  _269
REMARK  107  A    between atoms: _269  and  _270
REMARK  108  A    between atoms: _270  and  _271
REMARK  109  A    between atoms: _274  and  _276
REMARK  110  A    between atoms: _276  and  _277
REMARK  111  A    between atoms: _279  and  _281
REMARK  112  A    between atoms: _281  and  _282
REMARK  113  A    between atoms: _281  and  _284
REMARK  114  A    between atoms: _284  and  _285
REMARK  115  A    between atoms: _289  and  ZN_291
REMARK                            x       y       z     vdW  Elec       q    Type
REMARK                         _______ _______ _______ _____ _____    ______ ____
ROOT
ATOM      1  O   HOH     1     -27.751  39.973   7.103  0.00  0.00    +0.000 OA
ENDROOT
TORSDOF 0
REMARK  Name = ../refined-set-2016/1m2x/1m2x_pocket.pdb
REMARK  115 active torsions:
REMARK  status: ('A' for Active; 'I' for Inactive)
REMARK    1  A    between atoms: _1  and  _3
REMARK    2  A    between atoms: _3  and  _4
REMARK    3  A    between atoms: _3  and  _6
REMARK    4  A    between atoms: _6  and  _7
REMARK    5  A    between atoms: _12  and  _14
REMARK    6  A    between atoms: _14  and  _15
REMARK    7  A    between atoms: _14  and  _17
REMARK    8  A    between atoms: _17  and  _18
REMARK    9  A    between atoms: _24  and  _26
REMARK   10  A    between atoms: _26  and  _27
REMARK   11  A    between atoms: _26  and  _29
REMARK   12  A    between atoms: _29  and  _30
REMARK   13  A    between atoms: _35  and  _36
REMARK   14  A    between atoms: _38  and  _40
REMARK   15  A    between atoms: _40  and  _41
REMARK   16  A    between atoms: _44  and  _46
REMARK   17  A    between atoms: _46  and  _47
REMARK   18  A    between atoms: _46  and  _49
REMARK   19  A    between atoms: _49  and  _50
REMARK   20  A    between atoms: _60  and  _62
REMARK   21  A    between atoms: _73  and  _76
REMARK   22  A    between atoms: _76  and  _77
REMARK   23  A    between atoms: _81  and  _82
REMARK   24  A    between atoms: _90  and  _92
REMARK   25  A    between atoms: _92  and  _93
REMARK   26  A    between atoms: _92  and  _95
REMARK   27  A    between atoms: _95  and  _96
REMARK   28  A    between atoms: _99  and  _101
REMARK   29  A    between atoms: _101  and  _102
REMARK   30  A    between atoms: _101  and  _104
REMARK   31  A    between atoms: _104  and  _105
REMARK   32  A    between atoms: _105  and  _107
REMARK   33  A    between atoms: _107  and  ZN_291
REMARK   34  A    between atoms: _108  and  _110
REMARK   35  A    between atoms: _110  and  _111
REMARK   36  A    between atoms: _110  and  _113
REMARK   37  A    between atoms: _113  and  _114
REMARK   38  A    between atoms: _114  and  _115
REMARK   39  A    between atoms: _115  and  _116
REMARK   40  A    between atoms: _125  and  _127
REMARK   41  A    between atoms: _127  and  _128
REMARK   42  A    between atoms: _131  and  _133
REMARK   43  A    between atoms: _133  and  _134
REMARK   44  A    between atoms: _136  and  _138
REMARK   45  A    between atoms: _138  and  _139
REMARK   46  A    between atoms: _138  and  _141
REMARK   47  A    between atoms: _141  and  _142
REMARK   48  A    between atoms: _145  and  _147
REMARK   49  A    between atoms: _147  and  _148
REMARK   50  A    between atoms: _147  and  _150
REMARK   51  A    between atoms: _150  and  _151
REMARK   52  A    between atoms: _151  and  _152
REMARK   53  A    between atoms: _155  and  _157
REMARK   54  A    between atoms: _157  and  _158
REMARK   55  A    between atoms: _157  and  _160
REMARK   56  A    between atoms: _160  and  _161
REMARK   57  A    between atoms: _161  and  _162
REMARK   58  A    between atoms: _162  and  _163
REMARK   59  A    between atoms: _163  and  _164
REMARK   60  A    between atoms: _168  and  _170
REMARK   61  A    between atoms: _170  and  _171
REMARK   62  A    between atoms: _170  and  _173
REMARK   63  A    between atoms: _173  and  _174
REMARK   64  A    between atoms: _178  and  ZN_290
REMARK   65  A    between atoms: _179  and  _181
REMARK   66  A    between atoms: _181  and  _182
REMARK   67  A    between atoms: _181  and  _184
REMARK   68  A    between atoms: _184  and  _185
REMARK   69  A    between atoms: _188  and  _190
REMARK   70  A    between atoms: _190  and  _191
REMARK   71  A    between atoms: _193  and  _195
REMARK   72  A    between atoms: _195  and  _196
REMARK   73  A    between atoms: _195  and  _198
REMARK   74  A    between atoms: _198  and  _199
REMARK   75  A    between atoms: _199  and  ZN_291
REMARK   76  A    between atoms: _200  and  _202
REMARK   77  A    between atoms: _202  and  _203
REMARK   78  A    between atoms: _202  and  _205
REMARK   79  A    between atoms: _205  and  _206
REMARK   80  A    between atoms: _209  and  _211
REMARK   81  A    between atoms: _211  and  _212
REMARK   82  A    between atoms: _211  and  _214
REMARK   83  A    between atoms: _214  and  _215
REMARK   84  A    between atoms: _215  and  _216
REMARK   85  A    between atoms: _216  and  _217
REMARK   86  A    between atoms: _217  and  _218
REMARK   87  A    between atoms: _222  and  _224
REMARK   88  A    between atoms: _224  and  _225
REMARK   89  A    between atoms: _224  and  _227
REMARK   90  A    between atoms: _227  and  _228
REMARK   91  A    between atoms: _231  and  _233
REMARK   92  A    between atoms: _233  and  _234
REMARK   93  A    between atoms: _236  and  _238
REMARK   94  A    between atoms: _238  and  _239
REMARK   95  A    between atoms: _238  and  _241
REMARK   96  A    between atoms: _241  and  _242
REMARK   97  A    between atoms: _247  and  _248
REMARK   98  A    between atoms: _250  and  _252
REMARK   99  A    between atoms: _252  and  _253
REMARK  100  A    between atoms: _252  and  _255
REMARK  101  A    between atoms: _255  and  _256
REMARK  102  A    between atoms: _259  and  _261
REMARK  103  A    between atoms: _261  and  _262
REMARK  104  A    between atoms: _264  and  _266
REMARK  105  A    between atoms: _266  and  _267
REMARK  106  A    between atoms: _266  and  _269
REMARK  107  A    between atoms: _269  and  _270
REMARK  108  A    between atoms: _270  and  _271
REMARK  109  A    between atoms: _274  and  _276
REMARK  110  A    between atoms: _276  and  _277
REMARK  111  A    between atoms: _279  and  _281
REMARK  112  A    between atoms: _281  and  _282
REMARK  113  A    between atoms: _281  and  _284
REMARK  114  A    between atoms: _284  and  _285
REMARK  115  A    between atoms: _289  and  ZN_291
REMARK                            x       y       z     vdW  Elec       q    Type
REMARK                         _______ _______ _______ _____ _____    ______ ____
ROOT
ATOM      1  O   HOH     1     -30.522  34.835   0.674  0.00  0.00    +0.000 OA
ENDROOT
TORSDOF 0
REMARK  Name = ../refined-set-2016/1m2x/1m2x_pocket.pdb
REMARK  115 active torsions:
REMARK  status: ('A' for Active; 'I' for Inactive)
REMARK    1  A    between atoms: _1  and  _3
REMARK    2  A    between atoms: _3  and  _4
REMARK    3  A    between atoms: _3  and  _6
REMARK    4  A    between atoms: _6  and  _7
REMARK    5  A    between atoms: _12  and  _14
REMARK    6  A    between atoms: _14  and  _15
REMARK    7  A    between atoms: _14  and  _17
REMARK    8  A    between atoms: _17  and  _18
REMARK    9  A    between atoms: _24  and  _26
REMARK   10  A    between atoms: _26  and  _27
REMARK   11  A    between atoms: _26  and  _29
REMARK   12  A    between atoms: _29  and  _30
REMARK   13  A    between atoms: _35  and  _36
REMARK   14  A    between atoms: _38  and  _40
REMARK   15  A    between atoms: _40  and  _41
REMARK   16  A    between atoms: _44  and  _46
REMARK   17  A    between atoms: _46  and  _47
REMARK   18  A    between atoms: _46  and  _49
REMARK   19  A    between atoms: _49  and  _50
REMARK   20  A    between atoms: _60  and  _62
REMARK   21  A    between atoms: _73  and  _76
REMARK   22  A    between atoms: _76  and  _77
REMARK   23  A    between atoms: _81  and  _82
REMARK   24  A    between atoms: _90  and  _92
REMARK   25  A    between atoms: _92  and  _93
REMARK   26  A    between atoms: _92  and  _95
REMARK   27  A    between atoms: _95  and  _96
REMARK   28  A    between atoms: _99  and  _101
REMARK   29  A    between atoms: _101  and  _102
REMARK   30  A    between atoms: _101  and  _104
REMARK   31  A    between atoms: _104  and  _105
REMARK   32  A    between atoms: _105  and  _107
REMARK   33  A    between atoms: _107  and  ZN_291
REMARK   34  A    between atoms: _108  and  _110
REMARK   35  A    between atoms: _110  and  _111
REMARK   36  A    between atoms: _110  and  _113
REMARK   37  A    between atoms: _113  and  _114
REMARK   38  A    between atoms: _114  and  _115
REMARK   39  A    between atoms: _115  and  _116
REMARK   40  A    between atoms: _125  and  _127
REMARK   41  A    between atoms: _127  and  _128
REMARK   42  A    between atoms: _131  and  _133
REMARK   43  A    between atoms: _133  and  _134
REMARK   44  A    between atoms: _136  and  _138
REMARK   45  A    between atoms: _138  and  _139
REMARK   46  A    between atoms: _138  and  _141
REMARK   47  A    between atoms: _141  and  _142
REMARK   48  A    between atoms: _145  and  _147
REMARK   49  A    between atoms: _147  and  _148
REMARK   50  A    between atoms: _147  and  _150
REMARK   51  A    between atoms: _150  and  _151
REMARK   52  A    between atoms: _151  and  _152
REMARK   53  A    between atoms: _155  and  _157
REMARK   54  A    between atoms: _157  and  _158
REMARK   55  A    between atoms: _157  and  _160
REMARK   56  A    between atoms: _160  and  _161
REMARK   57  A    between atoms: _161  and  _162
REMARK   58  A    between atoms: _162  and  _163
REMARK   59  A    between atoms: _163  and  _164
REMARK   60  A    between atoms: _168  and  _170
REMARK   61  A    between atoms: _170  and  _171
REMARK   62  A    between atoms: _170  and  _173
REMARK   63  A    between atoms: _173  and  _174
REMARK   64  A    between atoms: _178  and  ZN_290
REMARK   65  A    between atoms: _179  and  _181
REMARK   66  A    between atoms: _181  and  _182
REMARK   67  A    between atoms: _181  and  _184
REMARK   68  A    between atoms: _184  and  _185
REMARK   69  A    between atoms: _188  and  _190
REMARK   70  A    between atoms: _190  and  _191
REMARK   71  A    between atoms: _193  and  _195
REMARK   72  A    between atoms: _195  and  _196
REMARK   73  A    between atoms: _195  and  _198
REMARK   74  A    between atoms: _198  and  _199
REMARK   75  A    between atoms: _199  and  ZN_291
REMARK   76  A    between atoms: _200  and  _202
REMARK   77  A    between atoms: _202  and  _203
REMARK   78  A    between atoms: _202  and  _205
REMARK   79  A    between atoms: _205  and  _206
REMARK   80  A    between atoms: _209  and  _211
REMARK   81  A    between atoms: _211  and  _212
REMARK   82  A    between atoms: _211  and  _214
REMARK   83  A    between atoms: _214  and  _215
REMARK   84  A    between atoms: _215  and  _216
REMARK   85  A    between atoms: _216  and  _217
REMARK   86  A    between atoms: _217  and  _218
REMARK   87  A    between atoms: _222  and  _224
REMARK   88  A    between atoms: _224  and  _225
REMARK   89  A    between atoms: _224  and  _227
REMARK   90  A    between atoms: _227  and  _228
REMARK   91  A    between atoms: _231  and  _233
REMARK   92  A    between atoms: _233  and  _234
REMARK   93  A    between atoms: _236  and  _238
REMARK   94  A    between atoms: _238  and  _239
REMARK   95  A    between atoms: _238  and  _241
REMARK   96  A    between atoms: _241  and  _242
REMARK   97  A    between atoms: _247  and  _248
REMARK   98  A    between atoms: _250  and  _252
REMARK   99  A    between atoms: _252  and  _253
REMARK  100  A    between atoms: _252  and  _255
REMARK  101  A    between atoms: _255  and  _256
REMARK  102  A    between atoms: _259  and  _261
REMARK  103  A    between atoms: _261  and  _262
REMARK  104  A    between atoms: _264  and  _266
REMARK  105  A    between atoms: _266  and  _267
REMARK  106  A    between atoms: _266  and  _269
REMARK  107  A    between atoms: _269  and  _270
REMARK  108  A    between atoms: _270  and  _271
REMARK  109  A    between atoms: _274  and  _276
REMARK  110  A    between atoms: _276  and  _277
REMARK  111  A    between atoms: _279  and  _281
REMARK  112  A    between atoms: _281  and  _282
REMARK  113  A    between atoms: _281  and  _284
REMARK  114  A    between atoms: _284  and  _285
REMARK  115  A    between atoms: _289  and  ZN_291
REMARK                            x       y       z     vdW  Elec       q    Type
REMARK                         _______ _______ _______ _____ _____    ______ ____
ROOT
ATOM      1  O   HOH     1     -31.974  36.009   8.015  0.00  0.00    +0.000 OA
ENDROOT
TORSDOF 0
REMARK  Name = ../refined-set-2016/1m2x/1m2x_pocket.pdb
REMARK  115 active torsions:
REMARK  status: ('A' for Active; 'I' for Inactive)
REMARK    1  A    between atoms: _1  and  _3
REMARK    2  A    between atoms: _3  and  _4
REMARK    3  A    between atoms: _3  and  _6
REMARK    4  A    between atoms: _6  and  _7
REMARK    5  A    between atoms: _12  and  _14
REMARK    6  A    between atoms: _14  and  _15
REMARK    7  A    between atoms: _14  and  _17
REMARK    8  A    between atoms: _17  and  _18
REMARK    9  A    between atoms: _24  and  _26
REMARK   10  A    between atoms: _26  and  _27
REMARK   11  A    between atoms: _26  and  _29
REMARK   12  A    between atoms: _29  and  _30
REMARK   13  A    between atoms: _35  and  _36
REMARK   14  A    between atoms: _38  and  _40
REMARK   15  A    between atoms: _40  and  _41
REMARK   16  A    between atoms: _44  and  _46
REMARK   17  A    between atoms: _46  and  _47
REMARK   18  A    between atoms: _46  and  _49
REMARK   19  A    between atoms: _49  and  _50
REMARK   20  A    between atoms: _60  and  _62
REMARK   21  A    between atoms: _73  and  _76
REMARK   22  A    between atoms: _76  and  _77
REMARK   23  A    between atoms: _81  and  _82
REMARK   24  A    between atoms: _90  and  _92
REMARK   25  A    between atoms: _92  and  _93
REMARK   26  A    between atoms: _92  and  _95
REMARK   27  A    between atoms: _95  and  _96
REMARK   28  A    between atoms: _99  and  _101
REMARK   29  A    between atoms: _101  and  _102
REMARK   30  A    between atoms: _101  and  _104
REMARK   31  A    between atoms: _104  and  _105
REMARK   32  A    between atoms: _105  and  _107
REMARK   33  A    between atoms: _107  and  ZN_291
REMARK   34  A    between atoms: _108  and  _110
REMARK   35  A    between atoms: _110  and  _111
REMARK   36  A    between atoms: _110  and  _113
REMARK   37  A    between atoms: _113  and  _114
REMARK   38  A    between atoms: _114  and  _115
REMARK   39  A    between atoms: _115  and  _116
REMARK   40  A    between atoms: _125  and  _127
REMARK   41  A    between atoms: _127  and  _128
REMARK   42  A    between atoms: _131  and  _133
REMARK   43  A    between atoms: _133  and  _134
REMARK   44  A    between atoms: _136  and  _138
REMARK   45  A    between atoms: _138  and  _139
REMARK   46  A    between atoms: _138  and  _141
REMARK   47  A    between atoms: _141  and  _142
REMARK   48  A    between atoms: _145  and  _147
REMARK   49  A    between atoms: _147  and  _148
REMARK   50  A    between atoms: _147  and  _150
REMARK   51  A    between atoms: _150  and  _151
REMARK   52  A    between atoms: _151  and  _152
REMARK   53  A    between atoms: _155  and  _157
REMARK   54  A    between atoms: _157  and  _158
REMARK   55  A    between atoms: _157  and  _160
REMARK   56  A    between atoms: _160  and  _161
REMARK   57  A    between atoms: _161  and  _162
REMARK   58  A    between atoms: _162  and  _163
REMARK   59  A    between atoms: _163  and  _164
REMARK   60  A    between atoms: _168  and  _170
REMARK   61  A    between atoms: _170  and  _171
REMARK   62  A    between atoms: _170  and  _173
REMARK   63  A    between atoms: _173  and  _174
REMARK   64  A    between atoms: _178  and  ZN_290
REMARK   65  A    between atoms: _179  and  _181
REMARK   66  A    between atoms: _181  and  _182
REMARK   67  A    between atoms: _181  and  _184
REMARK   68  A    between atoms: _184  and  _185
REMARK   69  A    between atoms: _188  and  _190
REMARK   70  A    between atoms: _190  and  _191
REMARK   71  A    between atoms: _193  and  _195
REMARK   72  A    between atoms: _195  and  _196
REMARK   73  A    between atoms: _195  and  _198
REMARK   74  A    between atoms: _198  and  _199
REMARK   75  A    between atoms: _199  and  ZN_291
REMARK   76  A    between atoms: _200  and  _202
REMARK   77  A    between atoms: _202  and  _203
REMARK   78  A    between atoms: _202  and  _205
REMARK   79  A    between atoms: _205  and  _206
REMARK   80  A    between atoms: _209  and  _211
REMARK   81  A    between atoms: _211  and  _212
REMARK   82  A    between atoms: _211  and  _214
REMARK   83  A    between atoms: _214  and  _215
REMARK   84  A    between atoms: _215  and  _216
REMARK   85  A    between atoms: _216  and  _217
REMARK   86  A    between atoms: _217  and  _218
REMARK   87  A    between atoms: _222  and  _224
REMARK   88  A    between atoms: _224  and  _225
REMARK   89  A    between atoms: _224  and  _227
REMARK   90  A    between atoms: _227  and  _228
REMARK   91  A    between atoms: _231  and  _233
REMARK   92  A    between atoms: _233  and  _234
REMARK   93  A    between atoms: _236  and  _238
REMARK   94  A    between atoms: _238  and  _239
REMARK   95  A    between atoms: _238  and  _241
REMARK   96  A    between atoms: _241  and  _242
REMARK   97  A    between atoms: _247  and  _248
REMARK   98  A    between atoms: _250  and  _252
REMARK   99  A    between atoms: _252  and  _253
REMARK  100  A    between atoms: _252  and  _255
REMARK  101  A    between atoms: _255  and  _256
REMARK  102  A    between atoms: _259  and  _261
REMARK  103  A    between atoms: _261  and  _262
REMARK  104  A    between atoms: _264  and  _266
REMARK  105  A    between atoms: _266  and  _267
REMARK  106  A    between atoms: _266  and  _269
REMARK  107  A    between atoms: _269  and  _270
REMARK  108  A    between atoms: _270  and  _271
REMARK  109  A    between atoms: _274  and  _276
REMARK  110  A    between atoms: _276  and  _277
REMARK  111  A    between atoms: _279  and  _281
REMARK  112  A    between atoms: _281  and  _282
REMARK  113  A    between atoms: _281  and  _284
REMARK  114  A    between atoms: _284  and  _285
REMARK  115  A    between atoms: _289  and  ZN_291
REMARK                            x       y       z     vdW  Elec       q    Type
REMARK                         _______ _______ _______ _____ _____    ______ ____
ROOT
ATOM      1  O   HOH     1     -28.349  34.377   2.645  0.00  0.00    +0.000 OA
ENDROOT
TORSDOF 0
REMARK  Name = ../refined-set-2016/1m2x/1m2x_pocket.pdb
REMARK  115 active torsions:
REMARK  status: ('A' for Active; 'I' for Inactive)
REMARK    1  A    between atoms: _1  and  _3
REMARK    2  A    between atoms: _3  and  _4
REMARK    3  A    between atoms: _3  and  _6
REMARK    4  A    between atoms: _6  and  _7
REMARK    5  A    between atoms: _12  and  _14
REMARK    6  A    between atoms: _14  and  _15
REMARK    7  A    between atoms: _14  and  _17
REMARK    8  A    between atoms: _17  and  _18
REMARK    9  A    between atoms: _24  and  _26
REMARK   10  A    between atoms: _26  and  _27
REMARK   11  A    between atoms: _26  and  _29
REMARK   12  A    between atoms: _29  and  _30
REMARK   13  A    between atoms: _35  and  _36
REMARK   14  A    between atoms: _38  and  _40
REMARK   15  A    between atoms: _40  and  _41
REMARK   16  A    between atoms: _44  and  _46
REMARK   17  A    between atoms: _46  and  _47
REMARK   18  A    between atoms: _46  and  _49
REMARK   19  A    between atoms: _49  and  _50
REMARK   20  A    between atoms: _60  and  _62
REMARK   21  A    between atoms: _73  and  _76
REMARK   22  A    between atoms: _76  and  _77
REMARK   23  A    between atoms: _81  and  _82
REMARK   24  A    between atoms: _90  and  _92
REMARK   25  A    between atoms: _92  and  _93
REMARK   26  A    between atoms: _92  and  _95
REMARK   27  A    between atoms: _95  and  _96
REMARK   28  A    between atoms: _99  and  _101
REMARK   29  A    between atoms: _101  and  _102
REMARK   30  A    between atoms: _101  and  _104
REMARK   31  A    between atoms: _104  and  _105
REMARK   32  A    between atoms: _105  and  _107
REMARK   33  A    between atoms: _107  and  ZN_291
REMARK   34  A    between atoms: _108  and  _110
REMARK   35  A    between atoms: _110  and  _111
REMARK   36  A    between atoms: _110  and  _113
REMARK   37  A    between atoms: _113  and  _114
REMARK   38  A    between atoms: _114  and  _115
REMARK   39  A    between atoms: _115  and  _116
REMARK   40  A    between atoms: _125  and  _127
REMARK   41  A    between atoms: _127  and  _128
REMARK   42  A    between atoms: _131  and  _133
REMARK   43  A    between atoms: _133  and  _134
REMARK   44  A    between atoms: _136  and  _138
REMARK   45  A    between atoms: _138  and  _139
REMARK   46  A    between atoms: _138  and  _141
REMARK   47  A    between atoms: _141  and  _142
REMARK   48  A    between atoms: _145  and  _147
REMARK   49  A    between atoms: _147  and  _148
REMARK   50  A    between atoms: _147  and  _150
REMARK   51  A    between atoms: _150  and  _151
REMARK   52  A    between atoms: _151  and  _152
REMARK   53  A    between atoms: _155  and  _157
REMARK   54  A    between atoms: _157  and  _158
REMARK   55  A    between atoms: _157  and  _160
REMARK   56  A    between atoms: _160  and  _161
REMARK   57  A    between atoms: _161  and  _162
REMARK   58  A    between atoms: _162  and  _163
REMARK   59  A    between atoms: _163  and  _164
REMARK   60  A    between atoms: _168  and  _170
REMARK   61  A    between atoms: _170  and  _171
REMARK   62  A    between atoms: _170  and  _173
REMARK   63  A    between atoms: _173  and  _174
REMARK   64  A    between atoms: _178  and  ZN_290
REMARK   65  A    between atoms: _179  and  _181
REMARK   66  A    between atoms: _181  and  _182
REMARK   67  A    between atoms: _181  and  _184
REMARK   68  A    between atoms: _184  and  _185
REMARK   69  A    between atoms: _188  and  _190
REMARK   70  A    between atoms: _190  and  _191
REMARK   71  A    between atoms: _193  and  _195
REMARK   72  A    between atoms: _195  and  _196
REMARK   73  A    between atoms: _195  and  _198
REMARK   74  A    between atoms: _198  and  _199
REMARK   75  A    between atoms: _199  and  ZN_291
REMARK   76  A    between atoms: _200  and  _202
REMARK   77  A    between atoms: _202  and  _203
REMARK   78  A    between atoms: _202  and  _205
REMARK   79  A    between atoms: _205  and  _206
REMARK   80  A    between atoms: _209  and  _211
REMARK   81  A    between atoms: _211  and  _212
REMARK   82  A    between atoms: _211  and  _214
REMARK   83  A    between atoms: _214  and  _215
REMARK   84  A    between atoms: _215  and  _216
REMARK   85  A    between atoms: _216  and  _217
REMARK   86  A    between atoms: _217  and  _218
REMARK   87  A    between atoms: _222  and  _224
REMARK   88  A    between atoms: _224  and  _225
REMARK   89  A    between atoms: _224  and  _227
REMARK   90  A    between atoms: _227  and  _228
REMARK   91  A    between atoms: _231  and  _233
REMARK   92  A    between atoms: _233  and  _234
REMARK   93  A    between atoms: _236  and  _238
REMARK   94  A    between atoms: _238  and  _239
REMARK   95  A    between atoms: _238  and  _241
REMARK   96  A    between atoms: _241  and  _242
REMARK   97  A    between atoms: _247  and  _248
REMARK   98  A    between atoms: _250  and  _252
REMARK   99  A    between atoms: _252  and  _253
REMARK  100  A    between atoms: _252  and  _255
REMARK  101  A    between atoms: _255  and  _256
REMARK  102  A    between atoms: _259  and  _261
REMARK  103  A    between atoms: _261  and  _262
REMARK  104  A    between atoms: _264  and  _266
REMARK  105  A    between atoms: _266  and  _267
REMARK  106  A    between atoms: _266  and  _269
REMARK  107  A    between atoms: _269  and  _270
REMARK  108  A    between atoms: _270  and  _271
REMARK  109  A    between atoms: _274  and  _276
REMARK  110  A    between atoms: _276  and  _277
REMARK  111  A    between atoms: _279  and  _281
REMARK  112  A    between atoms: _281  and  _282
REMARK  113  A    between atoms: _281  and  _284
REMARK  114  A    between atoms: _284  and  _285
REMARK  115  A    between atoms: _289  and  ZN_291
REMARK                            x       y       z     vdW  Elec       q    Type
REMARK                         _______ _______ _______ _____ _____    ______ ____
ROOT
ATOM      1  O   HOH     1     -19.701  41.113  15.913  0.00  0.00    +0.000 OA
ENDROOT
TORSDOF 0
REMARK  Name = ../refined-set-2016/1m2x/1m2x_pocket.pdb
REMARK  115 active torsions:
REMARK  status: ('A' for Active; 'I' for Inactive)
REMARK    1  A    between atoms: _1  and  _3
REMARK    2  A    between atoms: _3  and  _4
REMARK    3  A    between atoms: _3  and  _6
REMARK    4  A    between atoms: _6  and  _7
REMARK    5  A    between atoms: _12  and  _14
REMARK    6  A    between atoms: _14  and  _15
REMARK    7  A    between atoms: _14  and  _17
REMARK    8  A    between atoms: _17  and  _18
REMARK    9  A    between atoms: _24  and  _26
REMARK   10  A    between atoms: _26  and  _27
REMARK   11  A    between atoms: _26  and  _29
REMARK   12  A    between atoms: _29  and  _30
REMARK   13  A    between atoms: _35  and  _36
REMARK   14  A    between atoms: _38  and  _40
REMARK   15  A    between atoms: _40  and  _41
REMARK   16  A    between atoms: _44  and  _46
REMARK   17  A    between atoms: _46  and  _47
REMARK   18  A    between atoms: _46  and  _49
REMARK   19  A    between atoms: _49  and  _50
REMARK   20  A    between atoms: _60  and  _62
REMARK   21  A    between atoms: _73  and  _76
REMARK   22  A    between atoms: _76  and  _77
REMARK   23  A    between atoms: _81  and  _82
REMARK   24  A    between atoms: _90  and  _92
REMARK   25  A    between atoms: _92  and  _93
REMARK   26  A    between atoms: _92  and  _95
REMARK   27  A    between atoms: _95  and  _96
REMARK   28  A    between atoms: _99  and  _101
REMARK   29  A    between atoms: _101  and  _102
REMARK   30  A    between atoms: _101  and  _104
REMARK   31  A    between atoms: _104  and  _105
REMARK   32  A    between atoms: _105  and  _107
REMARK   33  A    between atoms: _107  and  ZN_291
REMARK   34  A    between atoms: _108  and  _110
REMARK   35  A    between atoms: _110  and  _111
REMARK   36  A    between atoms: _110  and  _113
REMARK   37  A    between atoms: _113  and  _114
REMARK   38  A    between atoms: _114  and  _115
REMARK   39  A    between atoms: _115  and  _116
REMARK   40  A    between atoms: _125  and  _127
REMARK   41  A    between atoms: _127  and  _128
REMARK   42  A    between atoms: _131  and  _133
REMARK   43  A    between atoms: _133  and  _134
REMARK   44  A    between atoms: _136  and  _138
REMARK   45  A    between atoms: _138  and  _139
REMARK   46  A    between atoms: _138  and  _141
REMARK   47  A    between atoms: _141  and  _142
REMARK   48  A    between atoms: _145  and  _147
REMARK   49  A    between atoms: _147  and  _148
REMARK   50  A    between atoms: _147  and  _150
REMARK   51  A    between atoms: _150  and  _151
REMARK   52  A    between atoms: _151  and  _152
REMARK   53  A    between atoms: _155  and  _157
REMARK   54  A    between atoms: _157  and  _158
REMARK   55  A    between atoms: _157  and  _160
REMARK   56  A    between atoms: _160  and  _161
REMARK   57  A    between atoms: _161  and  _162
REMARK   58  A    between atoms: _162  and  _163
REMARK   59  A    between atoms: _163  and  _164
REMARK   60  A    between atoms: _168  and  _170
REMARK   61  A    between atoms: _170  and  _171
REMARK   62  A    between atoms: _170  and  _173
REMARK   63  A    between atoms: _173  and  _174
REMARK   64  A    between atoms: _178  and  ZN_290
REMARK   65  A    between atoms: _179  and  _181
REMARK   66  A    between atoms: _181  and  _182
REMARK   67  A    between atoms: _181  and  _184
REMARK   68  A    between atoms: _184  and  _185
REMARK   69  A    between atoms: _188  and  _190
REMARK   70  A    between atoms: _190  and  _191
REMARK   71  A    between atoms: _193  and  _195
REMARK   72  A    between atoms: _195  and  _196
REMARK   73  A    between atoms: _195  and  _198
REMARK   74  A    between atoms: _198  and  _199
REMARK   75  A    between atoms: _199  and  ZN_291
REMARK   76  A    between atoms: _200  and  _202
REMARK   77  A    between atoms: _202  and  _203
REMARK   78  A    between atoms: _202  and  _205
REMARK   79  A    between atoms: _205  and  _206
REMARK   80  A    between atoms: _209  and  _211
REMARK   81  A    between atoms: _211  and  _212
REMARK   82  A    between atoms: _211  and  _214
REMARK   83  A    between atoms: _214  and  _215
REMARK   84  A    between atoms: _215  and  _216
REMARK   85  A    between atoms: _216  and  _217
REMARK   86  A    between atoms: _217  and  _218
REMARK   87  A    between atoms: _222  and  _224
REMARK   88  A    between atoms: _224  and  _225
REMARK   89  A    between atoms: _224  and  _227
REMARK   90  A    between atoms: _227  and  _228
REMARK   91  A    between atoms: _231  and  _233
REMARK   92  A    between atoms: _233  and  _234
REMARK   93  A    between atoms: _236  and  _238
REMARK   94  A    between atoms: _238  and  _239
REMARK   95  A    between atoms: _238  and  _241
REMARK   96  A    between atoms: _241  and  _242
REMARK   97  A    between atoms: _247  and  _248
REMARK   98  A    between atoms: _250  and  _252
REMARK   99  A    between atoms: _252  and  _253
REMARK  100  A    between atoms: _252  and  _255
REMARK  101  A    between atoms: _255  and  _256
REMARK  102  A    between atoms: _259  and  _261
REMARK  103  A    between atoms: _261  and  _262
REMARK  104  A    between atoms: _264  and  _266
REMARK  105  A    between atoms: _266  and  _267
REMARK  106  A    between atoms: _266  and  _269
REMARK  107  A    between atoms: _269  and  _270
REMARK  108  A    between atoms: _270  and  _271
REMARK  109  A    between atoms: _274  and  _276
REMARK  110  A    between atoms: _276  and  _277
REMARK  111  A    between atoms: _279  and  _281
REMARK  112  A    between atoms: _281  and  _282
REMARK  113  A    between atoms: _281  and  _284
REMARK  114  A    between atoms: _284  and  _285
REMARK  115  A    between atoms: _289  and  ZN_291
REMARK                            x       y       z     vdW  Elec       q    Type
REMARK                         _______ _______ _______ _____ _____    ______ ____
ROOT
ATOM      1  O   HOH     1     -19.108  37.637  11.433  0.00  0.00    +0.000 OA
ENDROOT
TORSDOF 0
REMARK  Name = ../refined-set-2016/1m2x/1m2x_pocket.pdb
REMARK  115 active torsions:
REMARK  status: ('A' for Active; 'I' for Inactive)
REMARK    1  A    between atoms: _1  and  _3
REMARK    2  A    between atoms: _3  and  _4
REMARK    3  A    between atoms: _3  and  _6
REMARK    4  A    between atoms: _6  and  _7
REMARK    5  A    between atoms: _12  and  _14
REMARK    6  A    between atoms: _14  and  _15
REMARK    7  A    between atoms: _14  and  _17
REMARK    8  A    between atoms: _17  and  _18
REMARK    9  A    between atoms: _24  and  _26
REMARK   10  A    between atoms: _26  and  _27
REMARK   11  A    between atoms: _26  and  _29
REMARK   12  A    between atoms: _29  and  _30
REMARK   13  A    between atoms: _35  and  _36
REMARK   14  A    between atoms: _38  and  _40
REMARK   15  A    between atoms: _40  and  _41
REMARK   16  A    between atoms: _44  and  _46
REMARK   17  A    between atoms: _46  and  _47
REMARK   18  A    between atoms: _46  and  _49
REMARK   19  A    between atoms: _49  and  _50
REMARK   20  A    between atoms: _60  and  _62
REMARK   21  A    between atoms: _73  and  _76
REMARK   22  A    between atoms: _76  and  _77
REMARK   23  A    between atoms: _81  and  _82
REMARK   24  A    between atoms: _90  and  _92
REMARK   25  A    between atoms: _92  and  _93
REMARK   26  A    between atoms: _92  and  _95
REMARK   27  A    between atoms: _95  and  _96
REMARK   28  A    between atoms: _99  and  _101
REMARK   29  A    between atoms: _101  and  _102
REMARK   30  A    between atoms: _101  and  _104
REMARK   31  A    between atoms: _104  and  _105
REMARK   32  A    between atoms: _105  and  _107
REMARK   33  A    between atoms: _107  and  ZN_291
REMARK   34  A    between atoms: _108  and  _110
REMARK   35  A    between atoms: _110  and  _111
REMARK   36  A    between atoms: _110  and  _113
REMARK   37  A    between atoms: _113  and  _114
REMARK   38  A    between atoms: _114  and  _115
REMARK   39  A    between atoms: _115  and  _116
REMARK   40  A    between atoms: _125  and  _127
REMARK   41  A    between atoms: _127  and  _128
REMARK   42  A    between atoms: _131  and  _133
REMARK   43  A    between atoms: _133  and  _134
REMARK   44  A    between atoms: _136  and  _138
REMARK   45  A    between atoms: _138  and  _139
REMARK   46  A    between atoms: _138  and  _141
REMARK   47  A    between atoms: _141  and  _142
REMARK   48  A    between atoms: _145  and  _147
REMARK   49  A    between atoms: _147  and  _148
REMARK   50  A    between atoms: _147  and  _150
REMARK   51  A    between atoms: _150  and  _151
REMARK   52  A    between atoms: _151  and  _152
REMARK   53  A    between atoms: _155  and  _157
REMARK   54  A    between atoms: _157  and  _158
REMARK   55  A    between atoms: _157  and  _160
REMARK   56  A    between atoms: _160  and  _161
REMARK   57  A    between atoms: _161  and  _162
REMARK   58  A    between atoms: _162  and  _163
REMARK   59  A    between atoms: _163  and  _164
REMARK   60  A    between atoms: _168  and  _170
REMARK   61  A    between atoms: _170  and  _171
REMARK   62  A    between atoms: _170  and  _173
REMARK   63  A    between atoms: _173  and  _174
REMARK   64  A    between atoms: _178  and  ZN_290
REMARK   65  A    between atoms: _179  and  _181
REMARK   66  A    between atoms: _181  and  _182
REMARK   67  A    between atoms: _181  and  _184
REMARK   68  A    between atoms: _184  and  _185
REMARK   69  A    between atoms: _188  and  _190
REMARK   70  A    between atoms: _190  and  _191
REMARK   71  A    between atoms: _193  and  _195
REMARK   72  A    between atoms: _195  and  _196
REMARK   73  A    between atoms: _195  and  _198
REMARK   74  A    between atoms: _198  and  _199
REMARK   75  A    between atoms: _199  and  ZN_291
REMARK   76  A    between atoms: _200  and  _202
REMARK   77  A    between atoms: _202  and  _203
REMARK   78  A    between atoms: _202  and  _205
REMARK   79  A    between atoms: _205  and  _206
REMARK   80  A    between atoms: _209  and  _211
REMARK   81  A    between atoms: _211  and  _212
REMARK   82  A    between atoms: _211  and  _214
REMARK   83  A    between atoms: _214  and  _215
REMARK   84  A    between atoms: _215  and  _216
REMARK   85  A    between atoms: _216  and  _217
REMARK   86  A    between atoms: _217  and  _218
REMARK   87  A    between atoms: _222  and  _224
REMARK   88  A    between atoms: _224  and  _225
REMARK   89  A    between atoms: _224  and  _227
REMARK   90  A    between atoms: _227  and  _228
REMARK   91  A    between atoms: _231  and  _233
REMARK   92  A    between atoms: _233  and  _234
REMARK   93  A    between atoms: _236  and  _238
REMARK   94  A    between atoms: _238  and  _239
REMARK   95  A    between atoms: _238  and  _241
REMARK   96  A    between atoms: _241  and  _242
REMARK   97  A    between atoms: _247  and  _248
REMARK   98  A    between atoms: _250  and  _252
REMARK   99  A    between atoms: _252  and  _253
REMARK  100  A    between atoms: _252  and  _255
REMARK  101  A    between atoms: _255  and  _256
REMARK  102  A    between atoms: _259  and  _261
REMARK  103  A    between atoms: _261  and  _262
REMARK  104  A    between atoms: _264  and  _266
REMARK  105  A    between atoms: _266  and  _267
REMARK  106  A    between atoms: _266  and  _269
REMARK  107  A    between atoms: _269  and  _270
REMARK  108  A    between atoms: _270  and  _271
REMARK  109  A    between atoms: _274  and  _276
REMARK  110  A    between atoms: _276  and  _277
REMARK  111  A    between atoms: _279  and  _281
REMARK  112  A    between atoms: _281  and  _282
REMARK  113  A    between atoms: _281  and  _284
REMARK  114  A    between atoms: _284  and  _285
REMARK  115  A    between atoms: _289  and  ZN_291
REMARK                            x       y       z     vdW  Elec       q    Type
REMARK                         _______ _______ _______ _____ _____    ______ ____
ROOT
ATOM      1  O   HOH     1     -30.302  32.680   8.465  0.00  0.00    +0.000 OA
ENDROOT
TORSDOF 0
