REMARK  Name = ../refined-set-2016/3elc/3elc_pocket.pdb
REMARK  115 active torsions:
REMARK  status: ('A' for Active; 'I' for Inactive)
REMARK    1  A    between atoms: _1  and  _3
REMARK    2  A    between atoms: _3  and  _4
REMARK    3  A    between atoms: _3  and  _6
REMARK    4  A    between atoms: _6  and  _7
REMARK    5  A    between atoms: _10  and  _12
REMARK    6  A    between atoms: _12  and  _13
REMARK    7  A    between atoms: _12  and  _15
REMARK    8  A    between atoms: _15  and  _16
REMARK    9  A    between atoms: _19  and  _21
REMARK   10  A    between atoms: _21  and  _22
REMARK   11  A    between atoms: _25  and  _27
REMARK   12  A    between atoms: _27  and  _28
REMARK   13  A    between atoms: _27  and  _30
REMARK   14  A    between atoms: _30  and  _31
REMARK   15  A    between atoms: _31  and  _32
REMARK   16  A    between atoms: _37  and  _39
REMARK   17  A    between atoms: _39  and  _40
REMARK   18  A    between atoms: _44  and  _45
REMARK   19  A    between atoms: _50  and  _52
REMARK   20  A    between atoms: _52  and  _53
REMARK   21  A    between atoms: _52  and  _55
REMARK   22  A    between atoms: _55  and  _56
REMARK   23  A    between atoms: _56  and  _57
REMARK   24  A    between atoms: _57  and  _58
REMARK   25  A    between atoms: _58  and  _59
REMARK   26  A    between atoms: _63  and  _65
REMARK   27  A    between atoms: _65  and  _66
REMARK   28  A    between atoms: _65  and  _68
REMARK   29  A    between atoms: _68  and  _69
REMARK   30  A    between atoms: _69  and  _70
REMARK   31  A    between atoms: _72  and  _74
REMARK   32  A    between atoms: _74  and  _75
REMARK   33  A    between atoms: _74  and  _77
REMARK   34  A    between atoms: _77  and  _78
REMARK   35  A    between atoms: _82  and  _83
REMARK   36  A    between atoms: _88  and  _90
REMARK   37  A    between atoms: _90  and  _91
REMARK   38  A    between atoms: _90  and  _93
REMARK   39  A    between atoms: _93  and  _94
REMARK   40  A    between atoms: _99  and  _101
REMARK   41  A    between atoms: _101  and  _102
REMARK   42  A    between atoms: _101  and  _104
REMARK   43  A    between atoms: _104  and  _105
REMARK   44  A    between atoms: _108  and  _110
REMARK   45  A    between atoms: _110  and  _111
REMARK   46  A    between atoms: _110  and  _113
REMARK   47  A    between atoms: _116  and  _118
REMARK   48  A    between atoms: _118  and  _119
REMARK   49  A    between atoms: _118  and  _121
REMARK   50  A    between atoms: _121  and  _122
REMARK   51  A    between atoms: _122  and  _123
REMARK   52  A    between atoms: _123  and  _124
REMARK   53  A    between atoms: _124  and  _125
REMARK   54  A    between atoms: _129  and  _131
REMARK   55  A    between atoms: _131  and  _132
REMARK   56  A    between atoms: _135  and  _137
REMARK   57  A    between atoms: _137  and  _138
REMARK   58  A    between atoms: _137  and  _140
REMARK   59  A    between atoms: _140  and  _141
REMARK   60  A    between atoms: _144  and  _146
REMARK   61  A    between atoms: _146  and  _147
REMARK   62  A    between atoms: _146  and  _149
REMARK   63  A    between atoms: _149  and  _150
REMARK   64  A    between atoms: _153  and  _155
REMARK   65  A    between atoms: _155  and  _156
REMARK   66  A    between atoms: _155  and  _158
REMARK   67  A    between atoms: _158  and  _159
REMARK   68  A    between atoms: _162  and  _164
REMARK   69  A    between atoms: _164  and  _165
REMARK   70  A    between atoms: _164  and  _167
REMARK   71  A    between atoms: _167  and  _168
REMARK   72  A    between atoms: _168  and  _169
REMARK   73  A    between atoms: _172  and  _174
REMARK   74  A    between atoms: _174  and  _175
REMARK   75  A    between atoms: _174  and  _177
REMARK   76  A    between atoms: _177  and  _178
REMARK   77  A    between atoms: _181  and  _183
REMARK   78  A    between atoms: _183  and  _184
REMARK   79  A    between atoms: _183  and  _186
REMARK   80  A    between atoms: _186  and  _187
REMARK   81  A    between atoms: _190  and  _192
REMARK   82  A    between atoms: _192  and  _193
REMARK   83  A    between atoms: _192  and  _195
REMARK   84  A    between atoms: _195  and  _196
REMARK   85  A    between atoms: _199  and  _201
REMARK   86  A    between atoms: _201  and  _202
REMARK   87  A    between atoms: _204  and  _206
REMARK   88  A    between atoms: _206  and  _207
REMARK   89  A    between atoms: _206  and  _209
REMARK   90  A    between atoms: _209  and  _210
REMARK   91  A    between atoms: _213  and  _215
REMARK   92  A    between atoms: _215  and  _216
REMARK   93  A    between atoms: _215  and  _218
REMARK   94  A    between atoms: _218  and  _219
REMARK   95  A    between atoms: _222  and  _224
REMARK   96  A    between atoms: _224  and  _225
REMARK   97  A    between atoms: _227  and  _229
REMARK   98  A    between atoms: _229  and  _230
REMARK   99  A    between atoms: _229  and  _232
REMARK  100  A    between atoms: _232  and  _233
REMARK  101  A    between atoms: _233  and  _234
REMARK  102  A    between atoms: _234  and  _235
REMARK  103  A    between atoms: _235  and  _236
REMARK  104  A    between atoms: _240  and  _242
REMARK  105  A    between atoms: _242  and  _243
REMARK  106  A    between atoms: _242  and  _245
REMARK  107  A    between atoms: _245  and  _246
REMARK  108  A    between atoms: _249  and  _251
REMARK  109  A    between atoms: _251  and  _252
REMARK  110  A    between atoms: _251  and  _254
REMARK  111  A    between atoms: _254  and  _255
REMARK  112  A    between atoms: _261  and  _263
REMARK  113  A    between atoms: _263  and  _264
REMARK  114  A    between atoms: _263  and  _266
REMARK  115  A    between atoms: _266  and  _267
REMARK                            x       y       z     vdW  Elec       q    Type
REMARK                         _______ _______ _______ _____ _____    ______ ____
ROOT
ATOM      1  CA  LYS A   7      36.420   7.968  42.811  0.00  0.00    +0.149 C 
ENDROOT
BRANCH   1   2
ATOM      2  C   LYS A   7      35.380   8.902  42.172  0.00  0.00    +0.241 C 
ATOM      3  O   LYS A   7      35.411  10.109  42.384  0.00  0.00    -0.273 OA
ATOM      4  N   MET A   8      34.449   8.339  41.412  0.00  0.00    -0.297 N 
ATOM      5  H   MET A   8      34.411   7.301  41.351  0.00  0.00    +0.150 HD
BRANCH   4   6
ATOM      6  CA  MET A   8      33.475   9.125  40.657  0.00  0.00    +0.149 C 
BRANCH   6   7
ATOM      7  C   MET A   8      32.129   9.260  41.380  0.00  0.00    +0.241 C 
ATOM      8  N   LEU A   9      31.771   8.228  42.153  0.00  0.00    -0.297 N 
ATOM      9  H   LEU A   9      32.354   7.370  42.083  0.00  0.00    +0.150 HD
ATOM     10  O   MET A   8      31.454  10.273  41.216  0.00  0.00    -0.273 OA
BRANCH   8  11
ATOM     11  CA  LEU A   9      30.632   8.181  43.097  0.00  0.00    +0.149 C 
BRANCH  11  12
ATOM     12  C   LEU A   9      30.155   9.487  43.799  0.00  0.00    +0.244 C 
ATOM     13  N   PRO A  10      31.060  10.217  44.486  0.00  0.00    -0.272 N 
ATOM     14  CA  PRO A  10      30.519  11.397  45.183  0.00  0.00    +0.152 C 
ATOM     15  CB  PRO A  10      31.770  12.078  45.762  0.00  0.00    +0.031 C 
ATOM     16  CG  PRO A  10      32.779  11.009  45.876  0.00  0.00    +0.024 C 
ATOM     17  CD  PRO A  10      32.482   9.965  44.832  0.00  0.00    +0.094 C 
ATOM     18  O   LEU A   9      28.966   9.832  43.728  0.00  0.00    -0.273 OA
BRANCH  14  19
ATOM     19  C   PRO A  10      29.869  12.347  44.166  0.00  0.00    +0.241 C 
ATOM     20  O   PRO A  10      28.833  12.950  44.453  0.00  0.00    -0.273 OA
ATOM     21  N   HIS A  11      30.482  12.447  42.985  0.00  0.00    -0.297 N 
ATOM     22  H   HIS A  11      31.203  11.738  42.742  0.00  0.00    +0.150 HD
BRANCH  21  23
ATOM     23  CA  HIS A  11      30.194  13.500  42.016  0.00  0.00    +0.155 C 
BRANCH  23  24
ATOM     24  C   HIS A  11      29.168  13.093  40.953  0.00  0.00    +0.241 C 
ATOM     25  N   ILE A  12      28.805  11.818  40.908  0.00  0.00    -0.298 N 
ATOM     26  H   ILE A  12      29.143  11.167  41.645  0.00  0.00    +0.150 HD
ATOM     27  O   HIS A  11      28.706  13.930  40.195  0.00  0.00    -0.273 OA
BRANCH  25  28
ATOM     28  CA  ILE A  12      27.948  11.312  39.855  0.00  0.00    +0.137 C 
BRANCH  28  29
ATOM     29  C   ILE A  12      26.560  11.958  39.843  0.00  0.00    +0.227 C 
ATOM     30  O   ILE A  12      26.116  12.391  38.775  0.00  0.00    -0.286 OA
ENDBRANCH  28  29
BRANCH  28  31
ATOM     31  CB  ILE A  12      27.901   9.751  39.816  0.00  0.00    +0.026 C 
ATOM     32  CG2 ILE A  12      26.561   9.223  39.262  0.00  0.00    +0.002 C 
BRANCH  31  33
ATOM     33  CG1 ILE A  12      29.083   9.220  38.976  0.00  0.00    +0.002 C 
ATOM     34  CD1 ILE A  12      29.335   7.721  39.086  0.00  0.00    +0.000 C 
ENDBRANCH  31  33
ENDBRANCH  28  31
ENDBRANCH  25  28
ENDBRANCH  23  24
BRANCH  23  35
ATOM     35  CB  HIS A  11      31.500  13.971  41.351  0.00  0.00    +0.076 C 
BRANCH  35  36
ATOM     36  CG  HIS A  11      32.604  14.273  42.324  0.00  0.00    +0.082 A 
ATOM     37  CD2 HIS A  11      32.713  15.223  43.285  0.00  0.00    +0.115 A 
ATOM     38  NE2 HIS A  11      33.927  15.038  43.905  0.00  0.00    -0.221 NA
ATOM     39  CE1 HIS A  11      34.539  14.010  43.350  0.00  0.00    +0.199 A 
ATOM     40  ND1 HIS A  11      33.761  13.525  42.399  0.00  0.00    -0.227 NA
ENDBRANCH  35  36
ENDBRANCH  23  35
ENDBRANCH  21  23
ENDBRANCH  14  19
ENDBRANCH  11  12
BRANCH  11  41
ATOM     41  CB  LEU A   9      30.919   7.138  44.189  0.00  0.00    +0.029 C 
BRANCH  41  42
ATOM     42  CG  LEU A   9      29.900   6.777  45.294  0.00  0.00    +0.002 C 
ATOM     43  CD2 LEU A   9      30.566   6.513  46.660  0.00  0.00    +0.000 C 
ATOM     44  CD1 LEU A   9      29.088   5.558  44.903  0.00  0.00    +0.000 C 
ENDBRANCH  41  42
ENDBRANCH  11  41
ENDBRANCH   8  11
ENDBRANCH   6   7
BRANCH   6  45
ATOM     45  CB  MET A   8      33.292   8.545  39.244  0.00  0.00    +0.041 C 
BRANCH  45  46
ATOM     46  CG  MET A   8      34.547   8.537  38.378  0.00  0.00    +0.060 C 
BRANCH  46  47
ATOM     47  SD  MET A   8      35.122  10.154  37.796  0.00  0.00    -0.139 S 
ATOM     48  CE  MET A   8      36.754   9.787  37.159  0.00  0.00    +0.069 C 
ENDBRANCH  46  47
ENDBRANCH  45  46
ENDBRANCH   6  45
ENDBRANCH   4   6
ENDBRANCH   1   2
BRANCH   1  50
ATOM     49  C   PRO A   6      38.316   8.493  41.290  0.00  0.00    +0.241 C 
ATOM     50  N   LYS A   7      37.771   8.441  42.507  0.00  0.00    -0.297 N 
ATOM     51  H   LYS A   7      38.355   8.763  43.305  0.00  0.00    +0.150 HD
ATOM     52  O   PRO A   6      37.783   8.071  40.261  0.00  0.00    -0.273 OA
BRANCH  49  55
ATOM     53  C   ALA A   5      40.803   8.225  39.181  0.00  0.00    +0.244 C 
ATOM     54  N   PRO A   6      40.186   9.196  39.874  0.00  0.00    -0.272 N 
ATOM     55  CA  PRO A   6      39.674   9.132  41.235  0.00  0.00    +0.152 C 
ATOM     56  CB  PRO A   6      39.542  10.604  41.611  0.00  0.00    +0.031 C 
ATOM     57  CG  PRO A   6      39.171  11.275  40.326  0.00  0.00    +0.024 C 
ATOM     58  CD  PRO A   6      40.010  10.546  39.287  0.00  0.00    +0.094 C 
ATOM     59  O   ALA A   5      41.175   8.384  38.017  0.00  0.00    -0.273 OA
BRANCH  53  60
ATOM     60  CA  ALA A   5      41.042   6.891  39.884  0.00  0.00    +0.149 C 
ATOM     61  CB  ALA A   5      42.319   6.943  40.679  0.00  0.00    +0.031 C 
BRANCH  60  64
ATOM     62  C   GLN A   4      41.094   4.566  39.080  0.00  0.00    +0.241 C 
ATOM     63  O   GLN A   4      40.844   4.082  40.177  0.00  0.00    -0.273 OA
ATOM     64  N   ALA A   5      41.142   5.874  38.846  0.00  0.00    -0.297 N 
ATOM     65  H   ALA A   5      41.258   6.190  37.862  0.00  0.00    +0.150 HD
BRANCH  62  66
ATOM     66  CA  GLN A   4      41.322   3.676  37.861  0.00  0.00    +0.149 C 
BRANCH  66  69
ATOM     67  C   ALA A   3      39.462   4.480  36.532  0.00  0.00    +0.241 C 
ATOM     68  O   ALA A   3      38.624   3.913  37.249  0.00  0.00    -0.273 OA
ATOM     69  N   GLN A   4      40.782   4.363  36.698  0.00  0.00    -0.297 N 
ATOM     70  H   GLN A   4      41.429   4.766  35.990  0.00  0.00    +0.150 HD
BRANCH  67  71
ATOM     71  CA  ALA A   3      39.008   5.342  35.371  0.00  0.00    +0.149 C 
ATOM     72  CB  ALA A   3      38.422   6.656  35.886  0.00  0.00    +0.031 C 
BRANCH  71  74
ATOM     73  C   ILE A   2      37.799   4.718  33.366  0.00  0.00    +0.241 C 
ATOM     74  N   ALA A   3      38.005   4.587  34.665  0.00  0.00    -0.297 N 
ATOM     75  H   ALA A   3      37.420   3.912  35.198  0.00  0.00    +0.150 HD
ATOM     76  O   ILE A   2      38.568   5.307  32.633  0.00  0.00    -0.273 OA
BRANCH  73  77
ATOM     77  CA  ILE A   2      36.510   4.105  32.832  0.00  0.00    +0.148 C 
BRANCH  77  80
ATOM     78  C   ILE A   1      34.333   5.140  33.188  0.00  0.00    +0.238 C 
ATOM     79  O   ILE A   1      33.965   4.198  33.898  0.00  0.00    -0.274 OA
ATOM     80  N   ILE A   2      35.539   5.186  32.635  0.00  0.00    -0.297 N 
ATOM     81  H   ILE A   2      35.800   6.005  32.050  0.00  0.00    +0.150 HD
BRANCH  78  82
ATOM     82  CA  ILE A   1      33.381   6.297  32.869  0.00  0.00    +0.145 C 
BRANCH  82  83
ATOM     83  N   ILE A   1      32.092   5.748  32.614  0.00  0.00    -0.238 NA
ATOM     84  H   ILE A   1      31.413   5.725  33.401  0.00  0.00    +0.142 HD
ENDBRANCH  82  83
BRANCH  82  85
ATOM     85  CB  ILE A   1      33.255   7.299  34.040  0.00  0.00    +0.025 C 
ATOM     86  CG2 ILE A   1      34.566   8.058  34.260  0.00  0.00    +0.002 C 
BRANCH  85  87
ATOM     87  CG1 ILE A   1      32.066   8.272  33.781  0.00  0.00    +0.002 C 
ATOM     88  CD1 ILE A   1      31.687   9.214  34.995  0.00  0.00    +0.000 C 
ENDBRANCH  85  87
ENDBRANCH  82  85
ENDBRANCH  78  82
ENDBRANCH  77  80
BRANCH  77  89
ATOM     89  CB  ILE A   2      36.778   3.294  31.521  0.00  0.00    +0.027 C 
ATOM     90  CG2 ILE A   2      37.560   2.030  31.823  0.00  0.00    +0.002 C 
BRANCH  89  91
ATOM     91  CG1 ILE A   2      35.464   2.916  30.807  0.00  0.00    +0.002 C 
ATOM     92  CD1 ILE A   2      35.631   2.360  29.383  0.00  0.00    +0.000 C 
ENDBRANCH  89  91
ENDBRANCH  77  89
ENDBRANCH  73  77
ENDBRANCH  71  74
ENDBRANCH  67  71
ENDBRANCH  66  69
BRANCH  66  93
ATOM     93  CB  GLN A   4      42.805   3.364  37.685  0.00  0.00    +0.039 C 
BRANCH  93  94
ATOM     94  CG  GLN A   4      43.363   2.429  38.724  0.00  0.00    +0.087 C 
BRANCH  94  95
ATOM     95  CD  GLN A   4      42.739   1.049  38.670  0.00  0.00    +0.219 C 
ATOM     96  NE2 GLN A   4      42.425   0.512  39.825  0.00  0.00    -0.329 N 
ATOM     97 HE21 GLN A   4      42.609   1.031  40.707  0.00  0.00    +0.145 HD
ATOM     98 HE22 GLN A   4      41.992  -0.433  39.859  0.00  0.00    +0.145 HD
ATOM     99  OE1 GLN A   4      42.541   0.474  37.596  0.00  0.00    -0.275 OA
ENDBRANCH  94  95
ENDBRANCH  93  94
ENDBRANCH  66  93
ENDBRANCH  62  66
ENDBRANCH  60  64
ENDBRANCH  53  60
ENDBRANCH  49  55
ENDBRANCH   1  50
BRANCH   1 100
ATOM    100  CB  LYS A   7      36.252   7.945  44.340  0.00  0.00    +0.029 C 
BRANCH 100 101
ATOM    101  CG  LYS A   7      35.251   6.932  44.883  0.00  0.00    +0.000 C 
BRANCH 101 102
ATOM    102  CD  LYS A   7      35.922   5.609  45.241  0.00  0.00    -0.024 C 
BRANCH 102 103
ATOM    103  CE  LYS A   7      34.971   4.426  44.963  0.00  0.00    -0.086 C 
BRANCH 103 104
ATOM    104  NZ  LYS A   7      35.680   3.091  44.853  0.00  0.00    +0.380 N 
ATOM    105  HZ1 LYS A   7      36.176   2.889  45.744  0.00  0.00    -0.089 HD
ATOM    106  HZ2 LYS A   7      34.982   2.343  44.666  0.00  0.00    -0.089 HD
ATOM    107  HZ3 LYS A   7      36.367   3.128  44.073  0.00  0.00    -0.089 HD
ENDBRANCH 103 104
ENDBRANCH 102 103
ENDBRANCH 101 102
ENDBRANCH 100 101
ENDBRANCH   1 100
TORSDOF 43
REMARK  Name = ../refined-set-2016/3elc/3elc_pocket.pdb
REMARK  115 active torsions:
REMARK  status: ('A' for Active; 'I' for Inactive)
REMARK    1  A    between atoms: _1  and  _3
REMARK    2  A    between atoms: _3  and  _4
REMARK    3  A    between atoms: _3  and  _6
REMARK    4  A    between atoms: _6  and  _7
REMARK    5  A    between atoms: _10  and  _12
REMARK    6  A    between atoms: _12  and  _13
REMARK    7  A    between atoms: _12  and  _15
REMARK    8  A    between atoms: _15  and  _16
REMARK    9  A    between atoms: _19  and  _21
REMARK   10  A    between atoms: _21  and  _22
REMARK   11  A    between atoms: _25  and  _27
REMARK   12  A    between atoms: _27  and  _28
REMARK   13  A    between atoms: _27  and  _30
REMARK   14  A    between atoms: _30  and  _31
REMARK   15  A    between atoms: _31  and  _32
REMARK   16  A    between atoms: _37  and  _39
REMARK   17  A    between atoms: _39  and  _40
REMARK   18  A    between atoms: _44  and  _45
REMARK   19  A    between atoms: _50  and  _52
REMARK   20  A    between atoms: _52  and  _53
REMARK   21  A    between atoms: _52  and  _55
REMARK   22  A    between atoms: _55  and  _56
REMARK   23  A    between atoms: _56  and  _57
REMARK   24  A    between atoms: _57  and  _58
REMARK   25  A    between atoms: _58  and  _59
REMARK   26  A    between atoms: _63  and  _65
REMARK   27  A    between atoms: _65  and  _66
REMARK   28  A    between atoms: _65  and  _68
REMARK   29  A    between atoms: _68  and  _69
REMARK   30  A    between atoms: _69  and  _70
REMARK   31  A    between atoms: _72  and  _74
REMARK   32  A    between atoms: _74  and  _75
REMARK   33  A    between atoms: _74  and  _77
REMARK   34  A    between atoms: _77  and  _78
REMARK   35  A    between atoms: _82  and  _83
REMARK   36  A    between atoms: _88  and  _90
REMARK   37  A    between atoms: _90  and  _91
REMARK   38  A    between atoms: _90  and  _93
REMARK   39  A    between atoms: _93  and  _94
REMARK   40  A    between atoms: _99  and  _101
REMARK   41  A    between atoms: _101  and  _102
REMARK   42  A    between atoms: _101  and  _104
REMARK   43  A    between atoms: _104  and  _105
REMARK   44  A    between atoms: _108  and  _110
REMARK   45  A    between atoms: _110  and  _111
REMARK   46  A    between atoms: _110  and  _113
REMARK   47  A    between atoms: _116  and  _118
REMARK   48  A    between atoms: _118  and  _119
REMARK   49  A    between atoms: _118  and  _121
REMARK   50  A    between atoms: _121  and  _122
REMARK   51  A    between atoms: _122  and  _123
REMARK   52  A    between atoms: _123  and  _124
REMARK   53  A    between atoms: _124  and  _125
REMARK   54  A    between atoms: _129  and  _131
REMARK   55  A    between atoms: _131  and  _132
REMARK   56  A    between atoms: _135  and  _137
REMARK   57  A    between atoms: _137  and  _138
REMARK   58  A    between atoms: _137  and  _140
REMARK   59  A    between atoms: _140  and  _141
REMARK   60  A    between atoms: _144  and  _146
REMARK   61  A    between atoms: _146  and  _147
REMARK   62  A    between atoms: _146  and  _149
REMARK   63  A    between atoms: _149  and  _150
REMARK   64  A    between atoms: _153  and  _155
REMARK   65  A    between atoms: _155  and  _156
REMARK   66  A    between atoms: _155  and  _158
REMARK   67  A    between atoms: _158  and  _159
REMARK   68  A    between atoms: _162  and  _164
REMARK   69  A    between atoms: _164  and  _165
REMARK   70  A    between atoms: _164  and  _167
REMARK   71  A    between atoms: _167  and  _168
REMARK   72  A    between atoms: _168  and  _169
REMARK   73  A    between atoms: _172  and  _174
REMARK   74  A    between atoms: _174  and  _175
REMARK   75  A    between atoms: _174  and  _177
REMARK   76  A    between atoms: _177  and  _178
REMARK   77  A    between atoms: _181  and  _183
REMARK   78  A    between atoms: _183  and  _184
REMARK   79  A    between atoms: _183  and  _186
REMARK   80  A    between atoms: _186  and  _187
REMARK   81  A    between atoms: _190  and  _192
REMARK   82  A    between atoms: _192  and  _193
REMARK   83  A    between atoms: _192  and  _195
REMARK   84  A    between atoms: _195  and  _196
REMARK   85  A    between atoms: _199  and  _201
REMARK   86  A    between atoms: _201  and  _202
REMARK   87  A    between atoms: _204  and  _206
REMARK   88  A    between atoms: _206  and  _207
REMARK   89  A    between atoms: _206  and  _209
REMARK   90  A    between atoms: _209  and  _210
REMARK   91  A    between atoms: _213  and  _215
REMARK   92  A    between atoms: _215  and  _216
REMARK   93  A    between atoms: _215  and  _218
REMARK   94  A    between atoms: _218  and  _219
REMARK   95  A    between atoms: _222  and  _224
REMARK   96  A    between atoms: _224  and  _225
REMARK   97  A    between atoms: _227  and  _229
REMARK   98  A    between atoms: _229  and  _230
REMARK   99  A    between atoms: _229  and  _232
REMARK  100  A    between atoms: _232  and  _233
REMARK  101  A    between atoms: _233  and  _234
REMARK  102  A    between atoms: _234  and  _235
REMARK  103  A    between atoms: _235  and  _236
REMARK  104  A    between atoms: _240  and  _242
REMARK  105  A    between atoms: _242  and  _243
REMARK  106  A    between atoms: _242  and  _245
REMARK  107  A    between atoms: _245  and  _246
REMARK  108  A    between atoms: _249  and  _251
REMARK  109  A    between atoms: _251  and  _252
REMARK  110  A    between atoms: _251  and  _254
REMARK  111  A    between atoms: _254  and  _255
REMARK  112  A    between atoms: _261  and  _263
REMARK  113  A    between atoms: _263  and  _264
REMARK  114  A    between atoms: _263  and  _266
REMARK  115  A    between atoms: _266  and  _267
REMARK                            x       y       z     vdW  Elec       q    Type
REMARK                         _______ _______ _______ _____ _____    ______ ____
ROOT
ATOM      1  CA  THR A   4      34.204   1.237  36.591  0.00  0.00    +0.176 C 
ENDROOT
BRANCH   1   4
ATOM      2  C   ALA A   3      32.435   2.893  36.992  0.00  0.00    +0.241 C 
ATOM      3  O   ALA A   3      31.831   2.156  37.761  0.00  0.00    -0.273 OA
ATOM      4  N   THR A   4      33.552   2.533  36.364  0.00  0.00    -0.295 N 
ATOM      5  H   THR A   4      33.980   3.196  35.686  0.00  0.00    +0.150 HD
BRANCH   2   6
ATOM      6  CA  ALA A   3      31.883   4.289  36.702  0.00  0.00    +0.149 C 
ATOM      7  CB  ALA A   3      32.408   5.273  37.714  0.00  0.00    +0.031 C 
BRANCH   6   9
ATOM      8  C   LYS A   2      29.668   4.942  35.928  0.00  0.00    +0.241 C 
ATOM      9  N   ALA A   3      30.432   4.254  36.760  0.00  0.00    -0.297 N 
ATOM     10  H   ALA A   3      29.976   3.664  37.485  0.00  0.00    +0.150 HD
ATOM     11  O   LYS A   2      30.123   5.620  35.016  0.00  0.00    -0.273 OA
BRANCH   8  12
ATOM     12  CA  LYS A   2      28.149   4.846  36.146  0.00  0.00    +0.149 C 
BRANCH  12  15
ATOM     13  C   VAL A   1      26.485   6.537  35.618  0.00  0.00    +0.238 C 
ATOM     14  O   VAL A   1      26.014   6.532  36.757  0.00  0.00    -0.274 OA
ATOM     15  N   LYS A   2      27.460   5.722  35.221  0.00  0.00    -0.297 N 
ATOM     16  H   LYS A   2      27.735   5.714  34.218  0.00  0.00    +0.150 HD
BRANCH  13  17
ATOM     17  CA  VAL A   1      25.929   7.472  34.560  0.00  0.00    +0.145 C 
BRANCH  17  18
ATOM     18  CB  VAL A   1      26.405   8.922  34.807  0.00  0.00    +0.025 C 
ATOM     19  CG2 VAL A   1      27.945   9.015  34.788  0.00  0.00    +0.002 C 
ATOM     20  CG1 VAL A   1      25.791   9.880  33.787  0.00  0.00    +0.002 C 
ENDBRANCH  17  18
BRANCH  17  21
ATOM     21  N   VAL A   1      24.500   7.365  34.615  0.00  0.00    -0.238 NA
ATOM     22  H   VAL A   1      24.026   7.348  35.541  0.00  0.00    +0.142 HD
ENDBRANCH  17  21
ENDBRANCH  13  17
ENDBRANCH  12  15
BRANCH  12  23
ATOM     23  CB  LYS A   2      27.659   3.417  35.961  0.00  0.00    +0.029 C 
BRANCH  23  24
ATOM     24  CG  LYS A   2      28.032   2.839  34.635  0.00  0.00    +0.000 C 
BRANCH  24  25
ATOM     25  CD  LYS A   2      27.399   1.493  34.416  0.00  0.00    -0.024 C 
BRANCH  25  26
ATOM     26  CE  LYS A   2      27.085   1.274  32.946  0.00  0.00    -0.086 C 
BRANCH  26  27
ATOM     27  NZ  LYS A   2      25.742   1.779  32.581  0.00  0.00    +0.380 N 
ATOM     28  HZ1 LYS A   2      25.022   1.283  33.144  0.00  0.00    -0.089 HD
ATOM     29  HZ2 LYS A   2      25.692   2.800  32.774  0.00  0.00    -0.089 HD
ATOM     30  HZ3 LYS A   2      25.572   1.608  31.569  0.00  0.00    -0.089 HD
ENDBRANCH  26  27
ENDBRANCH  25  26
ENDBRANCH  24  25
ENDBRANCH  23  24
ENDBRANCH  12  23
ENDBRANCH   8  12
ENDBRANCH   6   9
ENDBRANCH   2   6
ENDBRANCH   1   4
BRANCH   1  31
ATOM     31  C   THR A   4      35.741   1.251  36.341  0.00  0.00    +0.243 C 
ATOM     32  N   THR A   5      36.498   0.348  36.967  0.00  0.00    -0.295 N 
ATOM     33  H   THR A   5      36.064  -0.279  37.674  0.00  0.00    +0.150 HD
ATOM     34  O   THR A   4      36.228   2.091  35.593  0.00  0.00    -0.273 OA
BRANCH  32  35
ATOM     35  CA  THR A   5      37.943   0.222  36.675  0.00  0.00    +0.176 C 
BRANCH  35  36
ATOM     36  C   THR A   5      38.278  -0.882  35.684  0.00  0.00    +0.243 C 
ATOM     37  O   THR A   5      37.464  -1.753  35.404  0.00  0.00    -0.273 OA
ATOM     38  N   THR A   6      39.510  -0.851  35.186  0.00  0.00    -0.295 N 
ATOM     39  H   THR A   6      40.091  -0.001  35.334  0.00  0.00    +0.150 HD
BRANCH  38  40
ATOM     40  CA  THR A   6      40.072  -1.966  34.442  0.00  0.00    +0.176 C 
BRANCH  40  41
ATOM     41  C   THR A   6      40.956  -2.818  35.343  0.00  0.00    +0.243 C 
ATOM     42  N   GLU A   7      40.767  -2.730  36.666  0.00  0.00    -0.298 N 
ATOM     43  H   GLU A   7      40.063  -2.047  37.012  0.00  0.00    +0.150 HD
ATOM     44  O   THR A   6      41.794  -3.550  34.838  0.00  0.00    -0.273 OA
BRANCH  42  45
ATOM     45  CA  GLU A   7      41.497  -3.545  37.674  0.00  0.00    +0.137 C 
BRANCH  45  46
ATOM     46  C   GLU A   7      43.022  -3.515  37.519  0.00  0.00    +0.227 C 
ATOM     47  O   GLU A   7      43.673  -4.564  37.609  0.00  0.00    -0.286 OA
ENDBRANCH  45  46
BRANCH  45  48
ATOM     48  CB  GLU A   7      41.049  -5.012  37.665  0.00  0.00    +0.039 C 
BRANCH  48  49
ATOM     49  CG  GLU A   7      39.538  -5.290  37.768  0.00  0.00    +0.116 C 
BRANCH  49  50
ATOM     50  CD  GLU A   7      38.967  -5.156  39.180  0.00  0.00    +0.365 C 
ATOM     51  OE2 GLU A   7      39.746  -5.023  40.149  0.00  0.00    -0.246 OA
ATOM     52  OE1 GLU A   7      37.714  -5.155  39.314  0.00  0.00    -0.246 OA
ENDBRANCH  49  50
ENDBRANCH  48  49
ENDBRANCH  45  48
ENDBRANCH  42  45
ENDBRANCH  40  41
BRANCH  40  53
ATOM     53  CB  THR A   6      40.895  -1.494  33.226  0.00  0.00    +0.137 C 
ATOM     54  CG2 THR A   6      40.004  -0.836  32.183  0.00  0.00    +0.034 C 
BRANCH  53  55
ATOM     55  OG1 THR A   6      41.865  -0.541  33.648  0.00  0.00    -0.382 OA
ATOM     56  HG1 THR A   6      42.392  -0.240  32.866  0.00  0.00    +0.210 HD
ENDBRANCH  53  55
ENDBRANCH  40  53
ENDBRANCH  38  40
ENDBRANCH  35  36
BRANCH  35  57
ATOM     57  CB  THR A   5      38.804  -0.082  37.927  0.00  0.00    +0.137 C 
ATOM     58  CG2 THR A   5      38.812   1.084  38.888  0.00  0.00    +0.034 C 
BRANCH  57  59
ATOM     59  OG1 THR A   5      38.310  -1.266  38.575  0.00  0.00    -0.382 OA
ATOM     60  HG1 THR A   5      38.862  -1.458  39.374  0.00  0.00    +0.210 HD
ENDBRANCH  57  59
ENDBRANCH  35  57
ENDBRANCH  32  35
ENDBRANCH   1  31
BRANCH   1  61
ATOM     61  CB  THR A   4      33.521   0.118  35.776  0.00  0.00    +0.137 C 
ATOM     62  CG2 THR A   4      33.752   0.255  34.271  0.00  0.00    +0.034 C 
BRANCH  61  63
ATOM     63  OG1 THR A   4      34.028  -1.147  36.205  0.00  0.00    -0.382 OA
ATOM     64  HG1 THR A   4      33.593  -1.869  35.685  0.00  0.00    +0.210 HD
ENDBRANCH  61  63
ENDBRANCH   1  61
TORSDOF 29
REMARK  Name = ../refined-set-2016/3elc/3elc_pocket.pdb
REMARK  115 active torsions:
REMARK  status: ('A' for Active; 'I' for Inactive)
REMARK    1  A    between atoms: _1  and  _3
REMARK    2  A    between atoms: _3  and  _4
REMARK    3  A    between atoms: _3  and  _6
REMARK    4  A    between atoms: _6  and  _7
REMARK    5  A    between atoms: _10  and  _12
REMARK    6  A    between atoms: _12  and  _13
REMARK    7  A    between atoms: _12  and  _15
REMARK    8  A    between atoms: _15  and  _16
REMARK    9  A    between atoms: _19  and  _21
REMARK   10  A    between atoms: _21  and  _22
REMARK   11  A    between atoms: _25  and  _27
REMARK   12  A    between atoms: _27  and  _28
REMARK   13  A    between atoms: _27  and  _30
REMARK   14  A    between atoms: _30  and  _31
REMARK   15  A    between atoms: _31  and  _32
REMARK   16  A    between atoms: _37  and  _39
REMARK   17  A    between atoms: _39  and  _40
REMARK   18  A    between atoms: _44  and  _45
REMARK   19  A    between atoms: _50  and  _52
REMARK   20  A    between atoms: _52  and  _53
REMARK   21  A    between atoms: _52  and  _55
REMARK   22  A    between atoms: _55  and  _56
REMARK   23  A    between atoms: _56  and  _57
REMARK   24  A    between atoms: _57  and  _58
REMARK   25  A    between atoms: _58  and  _59
REMARK   26  A    between atoms: _63  and  _65
REMARK   27  A    between atoms: _65  and  _66
REMARK   28  A    between atoms: _65  and  _68
REMARK   29  A    between atoms: _68  and  _69
REMARK   30  A    between atoms: _69  and  _70
REMARK   31  A    between atoms: _72  and  _74
REMARK   32  A    between atoms: _74  and  _75
REMARK   33  A    between atoms: _74  and  _77
REMARK   34  A    between atoms: _77  and  _78
REMARK   35  A    between atoms: _82  and  _83
REMARK   36  A    between atoms: _88  and  _90
REMARK   37  A    between atoms: _90  and  _91
REMARK   38  A    between atoms: _90  and  _93
REMARK   39  A    between atoms: _93  and  _94
REMARK   40  A    between atoms: _99  and  _101
REMARK   41  A    between atoms: _101  and  _102
REMARK   42  A    between atoms: _101  and  _104
REMARK   43  A    between atoms: _104  and  _105
REMARK   44  A    between atoms: _108  and  _110
REMARK   45  A    between atoms: _110  and  _111
REMARK   46  A    between atoms: _110  and  _113
REMARK   47  A    between atoms: _116  and  _118
REMARK   48  A    between atoms: _118  and  _119
REMARK   49  A    between atoms: _118  and  _121
REMARK   50  A    between atoms: _121  and  _122
REMARK   51  A    between atoms: _122  and  _123
REMARK   52  A    between atoms: _123  and  _124
REMARK   53  A    between atoms: _124  and  _125
REMARK   54  A    between atoms: _129  and  _131
REMARK   55  A    between atoms: _131  and  _132
REMARK   56  A    between atoms: _135  and  _137
REMARK   57  A    between atoms: _137  and  _138
REMARK   58  A    between atoms: _137  and  _140
REMARK   59  A    between atoms: _140  and  _141
REMARK   60  A    between atoms: _144  and  _146
REMARK   61  A    between atoms: _146  and  _147
REMARK   62  A    between atoms: _146  and  _149
REMARK   63  A    between atoms: _149  and  _150
REMARK   64  A    between atoms: _153  and  _155
REMARK   65  A    between atoms: _155  and  _156
REMARK   66  A    between atoms: _155  and  _158
REMARK   67  A    between atoms: _158  and  _159
REMARK   68  A    between atoms: _162  and  _164
REMARK   69  A    between atoms: _164  and  _165
REMARK   70  A    between atoms: _164  and  _167
REMARK   71  A    between atoms: _167  and  _168
REMARK   72  A    between atoms: _168  and  _169
REMARK   73  A    between atoms: _172  and  _174
REMARK   74  A    between atoms: _174  and  _175
REMARK   75  A    between atoms: _174  and  _177
REMARK   76  A    between atoms: _177  and  _178
REMARK   77  A    between atoms: _181  and  _183
REMARK   78  A    between atoms: _183  and  _184
REMARK   79  A    between atoms: _183  and  _186
REMARK   80  A    between atoms: _186  and  _187
REMARK   81  A    between atoms: _190  and  _192
REMARK   82  A    between atoms: _192  and  _193
REMARK   83  A    between atoms: _192  and  _195
REMARK   84  A    between atoms: _195  and  _196
REMARK   85  A    between atoms: _199  and  _201
REMARK   86  A    between atoms: _201  and  _202
REMARK   87  A    between atoms: _204  and  _206
REMARK   88  A    between atoms: _206  and  _207
REMARK   89  A    between atoms: _206  and  _209
REMARK   90  A    between atoms: _209  and  _210
REMARK   91  A    between atoms: _213  and  _215
REMARK   92  A    between atoms: _215  and  _216
REMARK   93  A    between atoms: _215  and  _218
REMARK   94  A    between atoms: _218  and  _219
REMARK   95  A    between atoms: _222  and  _224
REMARK   96  A    between atoms: _224  and  _225
REMARK   97  A    between atoms: _227  and  _229
REMARK   98  A    between atoms: _229  and  _230
REMARK   99  A    between atoms: _229  and  _232
REMARK  100  A    between atoms: _232  and  _233
REMARK  101  A    between atoms: _233  and  _234
REMARK  102  A    between atoms: _234  and  _235
REMARK  103  A    between atoms: _235  and  _236
REMARK  104  A    between atoms: _240  and  _242
REMARK  105  A    between atoms: _242  and  _243
REMARK  106  A    between atoms: _242  and  _245
REMARK  107  A    between atoms: _245  and  _246
REMARK  108  A    between atoms: _249  and  _251
REMARK  109  A    between atoms: _251  and  _252
REMARK  110  A    between atoms: _251  and  _254
REMARK  111  A    between atoms: _254  and  _255
REMARK  112  A    between atoms: _261  and  _263
REMARK  113  A    between atoms: _263  and  _264
REMARK  114  A    between atoms: _263  and  _266
REMARK  115  A    between atoms: _266  and  _267
REMARK                            x       y       z     vdW  Elec       q    Type
REMARK                         _______ _______ _______ _____ _____    ______ ____
ROOT
ATOM      1  CA  ILE A   1      40.585   8.112  31.540  0.00  0.00    +0.133 C 
ENDROOT
BRANCH   1   2
ATOM      2  N   ILE A   1      41.977   8.412  31.264  0.00  0.00    -0.239 NA
ATOM      3  H   ILE A   1      42.199   9.179  30.597  0.00  0.00    +0.142 HD
ENDBRANCH   1   2
BRANCH   1   4
ATOM      4  CB  ILE A   1      39.902   9.266  32.331  0.00  0.00    +0.023 C 
ATOM      5  CG2 ILE A   1      38.360   9.080  32.362  0.00  0.00    +0.002 C 
BRANCH   4   6
ATOM      6  CG1 ILE A   1      40.512   9.349  33.733  0.00  0.00    +0.002 C 
ATOM      7  CD1 ILE A   1      39.749  10.163  34.742  0.00  0.00    +0.000 C 
ENDBRANCH   4   6
ENDBRANCH   1   4
BRANCH   1   8
ATOM      8  C   ILE A   1      39.894   7.859  30.216  0.00  0.00    +0.224 C 
ATOM      9  O   ILE A   1      40.013   8.640  29.285  0.00  0.00    -0.287 OA
ENDBRANCH   1   8
TORSDOF 4
REMARK  Name = ../refined-set-2016/3elc/3elc_pocket.pdb
REMARK  115 active torsions:
REMARK  status: ('A' for Active; 'I' for Inactive)
REMARK    1  A    between atoms: _1  and  _3
REMARK    2  A    between atoms: _3  and  _4
REMARK    3  A    between atoms: _3  and  _6
REMARK    4  A    between atoms: _6  and  _7
REMARK    5  A    between atoms: _10  and  _12
REMARK    6  A    between atoms: _12  and  _13
REMARK    7  A    between atoms: _12  and  _15
REMARK    8  A    between atoms: _15  and  _16
REMARK    9  A    between atoms: _19  and  _21
REMARK   10  A    between atoms: _21  and  _22
REMARK   11  A    between atoms: _25  and  _27
REMARK   12  A    between atoms: _27  and  _28
REMARK   13  A    between atoms: _27  and  _30
REMARK   14  A    between atoms: _30  and  _31
REMARK   15  A    between atoms: _31  and  _32
REMARK   16  A    between atoms: _37  and  _39
REMARK   17  A    between atoms: _39  and  _40
REMARK   18  A    between atoms: _44  and  _45
REMARK   19  A    between atoms: _50  and  _52
REMARK   20  A    between atoms: _52  and  _53
REMARK   21  A    between atoms: _52  and  _55
REMARK   22  A    between atoms: _55  and  _56
REMARK   23  A    between atoms: _56  and  _57
REMARK   24  A    between atoms: _57  and  _58
REMARK   25  A    between atoms: _58  and  _59
REMARK   26  A    between atoms: _63  and  _65
REMARK   27  A    between atoms: _65  and  _66
REMARK   28  A    between atoms: _65  and  _68
REMARK   29  A    between atoms: _68  and  _69
REMARK   30  A    between atoms: _69  and  _70
REMARK   31  A    between atoms: _72  and  _74
REMARK   32  A    between atoms: _74  and  _75
REMARK   33  A    between atoms: _74  and  _77
REMARK   34  A    between atoms: _77  and  _78
REMARK   35  A    between atoms: _82  and  _83
REMARK   36  A    between atoms: _88  and  _90
REMARK   37  A    between atoms: _90  and  _91
REMARK   38  A    between atoms: _90  and  _93
REMARK   39  A    between atoms: _93  and  _94
REMARK   40  A    between atoms: _99  and  _101
REMARK   41  A    between atoms: _101  and  _102
REMARK   42  A    between atoms: _101  and  _104
REMARK   43  A    between atoms: _104  and  _105
REMARK   44  A    between atoms: _108  and  _110
REMARK   45  A    between atoms: _110  and  _111
REMARK   46  A    between atoms: _110  and  _113
REMARK   47  A    between atoms: _116  and  _118
REMARK   48  A    between atoms: _118  and  _119
REMARK   49  A    between atoms: _118  and  _121
REMARK   50  A    between atoms: _121  and  _122
REMARK   51  A    between atoms: _122  and  _123
REMARK   52  A    between atoms: _123  and  _124
REMARK   53  A    between atoms: _124  and  _125
REMARK   54  A    between atoms: _129  and  _131
REMARK   55  A    between atoms: _131  and  _132
REMARK   56  A    between atoms: _135  and  _137
REMARK   57  A    between atoms: _137  and  _138
REMARK   58  A    between atoms: _137  and  _140
REMARK   59  A    between atoms: _140  and  _141
REMARK   60  A    between atoms: _144  and  _146
REMARK   61  A    between atoms: _146  and  _147
REMARK   62  A    between atoms: _146  and  _149
REMARK   63  A    between atoms: _149  and  _150
REMARK   64  A    between atoms: _153  and  _155
REMARK   65  A    between atoms: _155  and  _156
REMARK   66  A    between atoms: _155  and  _158
REMARK   67  A    between atoms: _158  and  _159
REMARK   68  A    between atoms: _162  and  _164
REMARK   69  A    between atoms: _164  and  _165
REMARK   70  A    between atoms: _164  and  _167
REMARK   71  A    between atoms: _167  and  _168
REMARK   72  A    between atoms: _168  and  _169
REMARK   73  A    between atoms: _172  and  _174
REMARK   74  A    between atoms: _174  and  _175
REMARK   75  A    between atoms: _174  and  _177
REMARK   76  A    between atoms: _177  and  _178
REMARK   77  A    between atoms: _181  and  _183
REMARK   78  A    between atoms: _183  and  _184
REMARK   79  A    between atoms: _183  and  _186
REMARK   80  A    between atoms: _186  and  _187
REMARK   81  A    between atoms: _190  and  _192
REMARK   82  A    between atoms: _192  and  _193
REMARK   83  A    between atoms: _192  and  _195
REMARK   84  A    between atoms: _195  and  _196
REMARK   85  A    between atoms: _199  and  _201
REMARK   86  A    between atoms: _201  and  _202
REMARK   87  A    between atoms: _204  and  _206
REMARK   88  A    between atoms: _206  and  _207
REMARK   89  A    between atoms: _206  and  _209
REMARK   90  A    between atoms: _209  and  _210
REMARK   91  A    between atoms: _213  and  _215
REMARK   92  A    between atoms: _215  and  _216
REMARK   93  A    between atoms: _215  and  _218
REMARK   94  A    between atoms: _218  and  _219
REMARK   95  A    between atoms: _222  and  _224
REMARK   96  A    between atoms: _224  and  _225
REMARK   97  A    between atoms: _227  and  _229
REMARK   98  A    between atoms: _229  and  _230
REMARK   99  A    between atoms: _229  and  _232
REMARK  100  A    between atoms: _232  and  _233
REMARK  101  A    between atoms: _233  and  _234
REMARK  102  A    between atoms: _234  and  _235
REMARK  103  A    between atoms: _235  and  _236
REMARK  104  A    between atoms: _240  and  _242
REMARK  105  A    between atoms: _242  and  _243
REMARK  106  A    between atoms: _242  and  _245
REMARK  107  A    between atoms: _245  and  _246
REMARK  108  A    between atoms: _249  and  _251
REMARK  109  A    between atoms: _251  and  _252
REMARK  110  A    between atoms: _251  and  _254
REMARK  111  A    between atoms: _254  and  _255
REMARK  112  A    between atoms: _261  and  _263
REMARK  113  A    between atoms: _263  and  _264
REMARK  114  A    between atoms: _263  and  _266
REMARK  115  A    between atoms: _266  and  _267
REMARK                            x       y       z     vdW  Elec       q    Type
REMARK                         _______ _______ _______ _____ _____    ______ ____
ROOT
ATOM      1  CA  ASP A   1      33.662  -4.960  33.041  0.00  0.00    +0.144 C 
ENDROOT
BRANCH   1   2
ATOM      2  N   ASP A   1      32.957  -4.453  31.859  0.00  0.00    -0.239 NA
ATOM      3  H   ASP A   1      33.002  -4.997  30.974  0.00  0.00    +0.142 HD
ENDBRANCH   1   2
BRANCH   1   4
ATOM      4  C   ASP A   1      34.955  -5.639  32.614  0.00  0.00    +0.225 C 
ATOM      5  O   ASP A   1      35.058  -6.137  31.481  0.00  0.00    -0.287 OA
ENDBRANCH   1   4
BRANCH   1   6
ATOM      6  CB  ASP A   1      32.778  -5.937  33.843  0.00  0.00    +0.139 C 
BRANCH   6   7
ATOM      7  CG  ASP A   1      33.325  -6.239  35.243  0.00  0.00    +0.367 C 
ATOM      8  OD2 ASP A   1      33.759  -5.311  35.962  0.00  0.00    -0.246 OA
ATOM      9  OD1 ASP A   1      33.276  -7.414  35.654  0.00  0.00    -0.246 OA
ENDBRANCH   6   7
ENDBRANCH   1   6
TORSDOF 4
REMARK  Name = ../refined-set-2016/3elc/3elc_pocket.pdb
REMARK  115 active torsions:
REMARK  status: ('A' for Active; 'I' for Inactive)
REMARK    1  A    between atoms: _1  and  _3
REMARK    2  A    between atoms: _3  and  _4
REMARK    3  A    between atoms: _3  and  _6
REMARK    4  A    between atoms: _6  and  _7
REMARK    5  A    between atoms: _10  and  _12
REMARK    6  A    between atoms: _12  and  _13
REMARK    7  A    between atoms: _12  and  _15
REMARK    8  A    between atoms: _15  and  _16
REMARK    9  A    between atoms: _19  and  _21
REMARK   10  A    between atoms: _21  and  _22
REMARK   11  A    between atoms: _25  and  _27
REMARK   12  A    between atoms: _27  and  _28
REMARK   13  A    between atoms: _27  and  _30
REMARK   14  A    between atoms: _30  and  _31
REMARK   15  A    between atoms: _31  and  _32
REMARK   16  A    between atoms: _37  and  _39
REMARK   17  A    between atoms: _39  and  _40
REMARK   18  A    between atoms: _44  and  _45
REMARK   19  A    between atoms: _50  and  _52
REMARK   20  A    between atoms: _52  and  _53
REMARK   21  A    between atoms: _52  and  _55
REMARK   22  A    between atoms: _55  and  _56
REMARK   23  A    between atoms: _56  and  _57
REMARK   24  A    between atoms: _57  and  _58
REMARK   25  A    between atoms: _58  and  _59
REMARK   26  A    between atoms: _63  and  _65
REMARK   27  A    between atoms: _65  and  _66
REMARK   28  A    between atoms: _65  and  _68
REMARK   29  A    between atoms: _68  and  _69
REMARK   30  A    between atoms: _69  and  _70
REMARK   31  A    between atoms: _72  and  _74
REMARK   32  A    between atoms: _74  and  _75
REMARK   33  A    between atoms: _74  and  _77
REMARK   34  A    between atoms: _77  and  _78
REMARK   35  A    between atoms: _82  and  _83
REMARK   36  A    between atoms: _88  and  _90
REMARK   37  A    between atoms: _90  and  _91
REMARK   38  A    between atoms: _90  and  _93
REMARK   39  A    between atoms: _93  and  _94
REMARK   40  A    between atoms: _99  and  _101
REMARK   41  A    between atoms: _101  and  _102
REMARK   42  A    between atoms: _101  and  _104
REMARK   43  A    between atoms: _104  and  _105
REMARK   44  A    between atoms: _108  and  _110
REMARK   45  A    between atoms: _110  and  _111
REMARK   46  A    between atoms: _110  and  _113
REMARK   47  A    between atoms: _116  and  _118
REMARK   48  A    between atoms: _118  and  _119
REMARK   49  A    between atoms: _118  and  _121
REMARK   50  A    between atoms: _121  and  _122
REMARK   51  A    between atoms: _122  and  _123
REMARK   52  A    between atoms: _123  and  _124
REMARK   53  A    between atoms: _124  and  _125
REMARK   54  A    between atoms: _129  and  _131
REMARK   55  A    between atoms: _131  and  _132
REMARK   56  A    between atoms: _135  and  _137
REMARK   57  A    between atoms: _137  and  _138
REMARK   58  A    between atoms: _137  and  _140
REMARK   59  A    between atoms: _140  and  _141
REMARK   60  A    between atoms: _144  and  _146
REMARK   61  A    between atoms: _146  and  _147
REMARK   62  A    between atoms: _146  and  _149
REMARK   63  A    between atoms: _149  and  _150
REMARK   64  A    between atoms: _153  and  _155
REMARK   65  A    between atoms: _155  and  _156
REMARK   66  A    between atoms: _155  and  _158
REMARK   67  A    between atoms: _158  and  _159
REMARK   68  A    between atoms: _162  and  _164
REMARK   69  A    between atoms: _164  and  _165
REMARK   70  A    between atoms: _164  and  _167
REMARK   71  A    between atoms: _167  and  _168
REMARK   72  A    between atoms: _168  and  _169
REMARK   73  A    between atoms: _172  and  _174
REMARK   74  A    between atoms: _174  and  _175
REMARK   75  A    between atoms: _174  and  _177
REMARK   76  A    between atoms: _177  and  _178
REMARK   77  A    between atoms: _181  and  _183
REMARK   78  A    between atoms: _183  and  _184
REMARK   79  A    between atoms: _183  and  _186
REMARK   80  A    between atoms: _186  and  _187
REMARK   81  A    between atoms: _190  and  _192
REMARK   82  A    between atoms: _192  and  _193
REMARK   83  A    between atoms: _192  and  _195
REMARK   84  A    between atoms: _195  and  _196
REMARK   85  A    between atoms: _199  and  _201
REMARK   86  A    between atoms: _201  and  _202
REMARK   87  A    between atoms: _204  and  _206
REMARK   88  A    between atoms: _206  and  _207
REMARK   89  A    between atoms: _206  and  _209
REMARK   90  A    between atoms: _209  and  _210
REMARK   91  A    between atoms: _213  and  _215
REMARK   92  A    between atoms: _215  and  _216
REMARK   93  A    between atoms: _215  and  _218
REMARK   94  A    between atoms: _218  and  _219
REMARK   95  A    between atoms: _222  and  _224
REMARK   96  A    between atoms: _224  and  _225
REMARK   97  A    between atoms: _227  and  _229
REMARK   98  A    between atoms: _229  and  _230
REMARK   99  A    between atoms: _229  and  _232
REMARK  100  A    between atoms: _232  and  _233
REMARK  101  A    between atoms: _233  and  _234
REMARK  102  A    between atoms: _234  and  _235
REMARK  103  A    between atoms: _235  and  _236
REMARK  104  A    between atoms: _240  and  _242
REMARK  105  A    between atoms: _242  and  _243
REMARK  106  A    between atoms: _242  and  _245
REMARK  107  A    between atoms: _245  and  _246
REMARK  108  A    between atoms: _249  and  _251
REMARK  109  A    between atoms: _251  and  _252
REMARK  110  A    between atoms: _251  and  _254
REMARK  111  A    between atoms: _254  and  _255
REMARK  112  A    between atoms: _261  and  _263
REMARK  113  A    between atoms: _263  and  _264
REMARK  114  A    between atoms: _263  and  _266
REMARK  115  A    between atoms: _266  and  _267
REMARK                            x       y       z     vdW  Elec       q    Type
REMARK                         _______ _______ _______ _____ _____    ______ ____
ROOT
ATOM      1  CA  ASP A   1      25.123  -2.972  34.362  0.00  0.00    +0.144 C 
ENDROOT
BRANCH   1   2
ATOM      2  N   ASP A   1      24.912  -4.424  34.420  0.00  0.00    -0.239 NA
ATOM      3  H   ASP A   1      25.708  -5.053  34.190  0.00  0.00    +0.142 HD
ENDBRANCH   1   2
BRANCH   1   4
ATOM      4  C   ASP A   1      24.400  -2.326  33.179  0.00  0.00    +0.225 C 
ATOM      5  O   ASP A   1      23.997  -1.178  33.247  0.00  0.00    -0.287 OA
ENDBRANCH   1   4
BRANCH   1   6
ATOM      6  CB  ASP A   1      26.634  -2.641  34.324  0.00  0.00    +0.139 C 
BRANCH   6   7
ATOM      7  CG  ASP A   1      27.276  -2.602  35.721  0.00  0.00    +0.367 C 
ATOM      8  OD2 ASP A   1      26.557  -2.471  36.733  0.00  0.00    -0.246 OA
ATOM      9  OD1 ASP A   1      28.521  -2.692  35.826  0.00  0.00    -0.246 OA
ENDBRANCH   6   7
ENDBRANCH   1   6
TORSDOF 4
REMARK  Name = ../refined-set-2016/3elc/3elc_pocket.pdb
REMARK  115 active torsions:
REMARK  status: ('A' for Active; 'I' for Inactive)
REMARK    1  A    between atoms: _1  and  _3
REMARK    2  A    between atoms: _3  and  _4
REMARK    3  A    between atoms: _3  and  _6
REMARK    4  A    between atoms: _6  and  _7
REMARK    5  A    between atoms: _10  and  _12
REMARK    6  A    between atoms: _12  and  _13
REMARK    7  A    between atoms: _12  and  _15
REMARK    8  A    between atoms: _15  and  _16
REMARK    9  A    between atoms: _19  and  _21
REMARK   10  A    between atoms: _21  and  _22
REMARK   11  A    between atoms: _25  and  _27
REMARK   12  A    between atoms: _27  and  _28
REMARK   13  A    between atoms: _27  and  _30
REMARK   14  A    between atoms: _30  and  _31
REMARK   15  A    between atoms: _31  and  _32
REMARK   16  A    between atoms: _37  and  _39
REMARK   17  A    between atoms: _39  and  _40
REMARK   18  A    between atoms: _44  and  _45
REMARK   19  A    between atoms: _50  and  _52
REMARK   20  A    between atoms: _52  and  _53
REMARK   21  A    between atoms: _52  and  _55
REMARK   22  A    between atoms: _55  and  _56
REMARK   23  A    between atoms: _56  and  _57
REMARK   24  A    between atoms: _57  and  _58
REMARK   25  A    between atoms: _58  and  _59
REMARK   26  A    between atoms: _63  and  _65
REMARK   27  A    between atoms: _65  and  _66
REMARK   28  A    between atoms: _65  and  _68
REMARK   29  A    between atoms: _68  and  _69
REMARK   30  A    between atoms: _69  and  _70
REMARK   31  A    between atoms: _72  and  _74
REMARK   32  A    between atoms: _74  and  _75
REMARK   33  A    between atoms: _74  and  _77
REMARK   34  A    between atoms: _77  and  _78
REMARK   35  A    between atoms: _82  and  _83
REMARK   36  A    between atoms: _88  and  _90
REMARK   37  A    between atoms: _90  and  _91
REMARK   38  A    between atoms: _90  and  _93
REMARK   39  A    between atoms: _93  and  _94
REMARK   40  A    between atoms: _99  and  _101
REMARK   41  A    between atoms: _101  and  _102
REMARK   42  A    between atoms: _101  and  _104
REMARK   43  A    between atoms: _104  and  _105
REMARK   44  A    between atoms: _108  and  _110
REMARK   45  A    between atoms: _110  and  _111
REMARK   46  A    between atoms: _110  and  _113
REMARK   47  A    between atoms: _116  and  _118
REMARK   48  A    between atoms: _118  and  _119
REMARK   49  A    between atoms: _118  and  _121
REMARK   50  A    between atoms: _121  and  _122
REMARK   51  A    between atoms: _122  and  _123
REMARK   52  A    between atoms: _123  and  _124
REMARK   53  A    between atoms: _124  and  _125
REMARK   54  A    between atoms: _129  and  _131
REMARK   55  A    between atoms: _131  and  _132
REMARK   56  A    between atoms: _135  and  _137
REMARK   57  A    between atoms: _137  and  _138
REMARK   58  A    between atoms: _137  and  _140
REMARK   59  A    between atoms: _140  and  _141
REMARK   60  A    between atoms: _144  and  _146
REMARK   61  A    between atoms: _146  and  _147
REMARK   62  A    between atoms: _146  and  _149
REMARK   63  A    between atoms: _149  and  _150
REMARK   64  A    between atoms: _153  and  _155
REMARK   65  A    between atoms: _155  and  _156
REMARK   66  A    between atoms: _155  and  _158
REMARK   67  A    between atoms: _158  and  _159
REMARK   68  A    between atoms: _162  and  _164
REMARK   69  A    between atoms: _164  and  _165
REMARK   70  A    between atoms: _164  and  _167
REMARK   71  A    between atoms: _167  and  _168
REMARK   72  A    between atoms: _168  and  _169
REMARK   73  A    between atoms: _172  and  _174
REMARK   74  A    between atoms: _174  and  _175
REMARK   75  A    between atoms: _174  and  _177
REMARK   76  A    between atoms: _177  and  _178
REMARK   77  A    between atoms: _181  and  _183
REMARK   78  A    between atoms: _183  and  _184
REMARK   79  A    between atoms: _183  and  _186
REMARK   80  A    between atoms: _186  and  _187
REMARK   81  A    between atoms: _190  and  _192
REMARK   82  A    between atoms: _192  and  _193
REMARK   83  A    between atoms: _192  and  _195
REMARK   84  A    between atoms: _195  and  _196
REMARK   85  A    between atoms: _199  and  _201
REMARK   86  A    between atoms: _201  and  _202
REMARK   87  A    between atoms: _204  and  _206
REMARK   88  A    between atoms: _206  and  _207
REMARK   89  A    between atoms: _206  and  _209
REMARK   90  A    between atoms: _209  and  _210
REMARK   91  A    between atoms: _213  and  _215
REMARK   92  A    between atoms: _215  and  _216
REMARK   93  A    between atoms: _215  and  _218
REMARK   94  A    between atoms: _218  and  _219
REMARK   95  A    between atoms: _222  and  _224
REMARK   96  A    between atoms: _224  and  _225
REMARK   97  A    between atoms: _227  and  _229
REMARK   98  A    between atoms: _229  and  _230
REMARK   99  A    between atoms: _229  and  _232
REMARK  100  A    between atoms: _232  and  _233
REMARK  101  A    between atoms: _233  and  _234
REMARK  102  A    between atoms: _234  and  _235
REMARK  103  A    between atoms: _235  and  _236
REMARK  104  A    between atoms: _240  and  _242
REMARK  105  A    between atoms: _242  and  _243
REMARK  106  A    between atoms: _242  and  _245
REMARK  107  A    between atoms: _245  and  _246
REMARK  108  A    between atoms: _249  and  _251
REMARK  109  A    between atoms: _251  and  _252
REMARK  110  A    between atoms: _251  and  _254
REMARK  111  A    between atoms: _254  and  _255
REMARK  112  A    between atoms: _261  and  _263
REMARK  113  A    between atoms: _263  and  _264
REMARK  114  A    between atoms: _263  and  _266
REMARK  115  A    between atoms: _266  and  _267
REMARK                            x       y       z     vdW  Elec       q    Type
REMARK                         _______ _______ _______ _____ _____    ______ ____
ROOT
ATOM      1  CA  LYS A   5      24.661   1.036  43.693  0.00  0.00    +0.149 C 
ENDROOT
BRANCH   1   4
ATOM      2  C   GLY A   4      26.804  -0.159  43.846  0.00  0.00    +0.243 C 
ATOM      3  O   GLY A   4      26.937   0.098  45.051  0.00  0.00    -0.273 OA
ATOM      4  N   LYS A   5      25.740   0.221  43.129  0.00  0.00    -0.297 N 
ATOM      5  H   LYS A   5      25.677  -0.073  42.134  0.00  0.00    +0.150 HD
BRANCH   2   6
ATOM      6  CA  GLY A   4      27.885  -0.942  43.104  0.00  0.00    +0.176 C 
BRANCH   6   9
ATOM      7  C   ILE A   3      26.328  -2.430  41.928  0.00  0.00    +0.241 C 
ATOM      8  O   ILE A   3      25.678  -2.644  42.946  0.00  0.00    -0.273 OA
ATOM      9  N   GLY A   4      27.399  -1.631  41.906  0.00  0.00    -0.295 N 
ATOM     10  H   GLY A   4      27.905  -1.494  41.008  0.00  0.00    +0.150 HD
BRANCH   7  11
ATOM     11  CA  ILE A   3      25.893  -3.061  40.607  0.00  0.00    +0.149 C 
BRANCH  11  14
ATOM     12  C   ASP A   2      25.186  -0.957  39.604  0.00  0.00    +0.241 C 
ATOM     13  O   ASP A   2      24.529  -0.670  40.604  0.00  0.00    -0.273 OA
ATOM     14  N   ILE A   3      25.880  -2.095  39.501  0.00  0.00    -0.297 N 
ATOM     15  H   ILE A   3      26.414  -2.297  38.632  0.00  0.00    +0.150 HD
BRANCH  12  16
ATOM     16  CA  ASP A   2      25.207   0.004  38.415  0.00  0.00    +0.160 C 
BRANCH  16  18
ATOM     17  C   GLY A   1      23.848   1.974  37.901  0.00  0.00    +0.240 C 
ATOM     18  N   ASP A   2      24.508   1.226  38.778  0.00  0.00    -0.297 N 
ATOM     19  H   ASP A   2      24.526   1.529  39.773  0.00  0.00    +0.150 HD
ATOM     20  O   GLY A   1      23.902   1.790  36.695  0.00  0.00    -0.274 OA
BRANCH  17  21
ATOM     21  CA  GLY A   1      23.022   3.111  38.486  0.00  0.00    +0.169 C 
BRANCH  21  22
ATOM     22  N   GLY A   1      21.597   3.048  38.143  0.00  0.00    -0.236 NA
ATOM     23  H   GLY A   1      21.270   3.573  37.307  0.00  0.00    +0.142 HD
ENDBRANCH  21  22
ENDBRANCH  17  21
ENDBRANCH  16  18
BRANCH  16  24
ATOM     24  CB  ASP A   2      26.642   0.296  37.938  0.00  0.00    +0.143 C 
BRANCH  24  25
ATOM     25  CG  ASP A   2      27.525   0.910  39.017  0.00  0.00    +0.367 C 
ATOM     26  OD2 ASP A   2      27.053   1.236  40.132  0.00  0.00    -0.246 OA
ATOM     27  OD1 ASP A   2      28.724   1.067  38.732  0.00  0.00    -0.246 OA
ENDBRANCH  24  25
ENDBRANCH  16  24
ENDBRANCH  12  16
ENDBRANCH  11  14
BRANCH  11  28
ATOM     28  CB  ILE A   3      26.727  -4.349  40.322  0.00  0.00    +0.027 C 
ATOM     29  CG2 ILE A   3      26.221  -5.094  39.074  0.00  0.00    +0.002 C 
BRANCH  28  30
ATOM     30  CG1 ILE A   3      28.255  -4.095  40.373  0.00  0.00    +0.002 C 
ATOM     31  CD1 ILE A   3      28.885  -2.992  39.376  0.00  0.00    +0.000 C 
ENDBRANCH  28  30
ENDBRANCH  11  28
ENDBRANCH   7  11
ENDBRANCH   6   9
ENDBRANCH   2   6
ENDBRANCH   1   4
BRANCH   1  32
ATOM     32  C   LYS A   5      23.440   0.233  44.151  0.00  0.00    +0.241 C 
ATOM     33  O   LYS A   5      22.672   0.713  44.980  0.00  0.00    -0.273 OA
ATOM     34  N   LEU A   6      23.238  -0.964  43.604  0.00  0.00    -0.297 N 
ATOM     35  H   LEU A   6      23.825  -1.273  42.803  0.00  0.00    +0.150 HD
BRANCH  34  36
ATOM     36  CA  LEU A   6      22.196  -1.844  44.125  0.00  0.00    +0.149 C 
BRANCH  36  37
ATOM     37  C   LEU A   6      22.729  -2.702  45.249  0.00  0.00    +0.241 C 
ATOM     38  O   LEU A   6      21.968  -3.157  46.097  0.00  0.00    -0.273 OA
ATOM     39  N   PHE A   7      24.040  -2.917  45.242  0.00  0.00    -0.298 N 
ATOM     40  H   PHE A   7      24.632  -2.428  44.540  0.00  0.00    +0.150 HD
BRANCH  39  41
ATOM     41  CA  PHE A   7      24.661  -3.813  46.186  0.00  0.00    +0.141 C 
BRANCH  41  42
ATOM     42  C   PHE A   7      25.890  -3.167  46.823  0.00  0.00    +0.227 C 
ATOM     43  O   PHE A   7      27.020  -3.489  46.454  0.00  0.00    -0.286 OA
ENDBRANCH  41  42
BRANCH  41  44
ATOM     44  CB  PHE A   7      25.022  -5.134  45.498  0.00  0.00    +0.054 C 
BRANCH  44  45
ATOM     45  CG  PHE A   7      23.933  -5.680  44.621  0.00  0.00    -0.020 A 
ATOM     46  CD2 PHE A   7      22.808  -6.289  45.180  0.00  0.00    -0.004 A 
ATOM     47  CE2 PHE A   7      21.799  -6.801  44.376  0.00  0.00    -0.000 A 
ATOM     48  CZ  PHE A   7      21.907  -6.708  42.989  0.00  0.00    -0.000 A 
ATOM     49  CE1 PHE A   7      23.026  -6.100  42.417  0.00  0.00    -0.000 A 
ATOM     50  CD1 PHE A   7      24.031  -5.594  43.235  0.00  0.00    -0.004 A 
ENDBRANCH  44  45
ENDBRANCH  41  44
ENDBRANCH  39  41
ENDBRANCH  36  37
BRANCH  36  51
ATOM     51  CB  LEU A   6      21.603  -2.744  43.043  0.00  0.00    +0.029 C 
BRANCH  51  52
ATOM     52  CG  LEU A   6      20.294  -2.239  42.436  0.00  0.00    +0.002 C 
ATOM     53  CD2 LEU A   6      19.479  -3.406  41.898  0.00  0.00    +0.000 C 
ATOM     54  CD1 LEU A   6      20.577  -1.230  41.331  0.00  0.00    +0.000 C 
ENDBRANCH  51  52
ENDBRANCH  36  51
ENDBRANCH  34  36
ENDBRANCH   1  32
BRANCH   1  55
ATOM     55  CB  LYS A   5      24.229   2.114  42.703  0.00  0.00    +0.029 C 
BRANCH  55  56
ATOM     56  CG  LYS A   5      23.458   3.285  43.319  0.00  0.00    +0.000 C 
BRANCH  56  57
ATOM     57  CD  LYS A   5      23.593   4.540  42.451  0.00  0.00    -0.024 C 
BRANCH  57  58
ATOM     58  CE  LYS A   5      23.129   5.806  43.163  0.00  0.00    -0.086 C 
BRANCH  58  59
ATOM     59  NZ  LYS A   5      21.653   6.022  43.002  0.00  0.00    +0.380 N 
ATOM     60  HZ1 LYS A   5      21.375   6.892  43.499  0.00  0.00    -0.089 HD
ATOM     61  HZ2 LYS A   5      21.139   5.212  43.404  0.00  0.00    -0.089 HD
ATOM     62  HZ3 LYS A   5      21.425   6.111  41.991  0.00  0.00    -0.089 HD
ENDBRANCH  58  59
ENDBRANCH  57  58
ENDBRANCH  56  57
ENDBRANCH  55  56
ENDBRANCH   1  55
TORSDOF 27
REMARK  Name = ../refined-set-2016/3elc/3elc_pocket.pdb
REMARK  115 active torsions:
REMARK  status: ('A' for Active; 'I' for Inactive)
REMARK    1  A    between atoms: _1  and  _3
REMARK    2  A    between atoms: _3  and  _4
REMARK    3  A    between atoms: _3  and  _6
REMARK    4  A    between atoms: _6  and  _7
REMARK    5  A    between atoms: _10  and  _12
REMARK    6  A    between atoms: _12  and  _13
REMARK    7  A    between atoms: _12  and  _15
REMARK    8  A    between atoms: _15  and  _16
REMARK    9  A    between atoms: _19  and  _21
REMARK   10  A    between atoms: _21  and  _22
REMARK   11  A    between atoms: _25  and  _27
REMARK   12  A    between atoms: _27  and  _28
REMARK   13  A    between atoms: _27  and  _30
REMARK   14  A    between atoms: _30  and  _31
REMARK   15  A    between atoms: _31  and  _32
REMARK   16  A    between atoms: _37  and  _39
REMARK   17  A    between atoms: _39  and  _40
REMARK   18  A    between atoms: _44  and  _45
REMARK   19  A    between atoms: _50  and  _52
REMARK   20  A    between atoms: _52  and  _53
REMARK   21  A    between atoms: _52  and  _55
REMARK   22  A    between atoms: _55  and  _56
REMARK   23  A    between atoms: _56  and  _57
REMARK   24  A    between atoms: _57  and  _58
REMARK   25  A    between atoms: _58  and  _59
REMARK   26  A    between atoms: _63  and  _65
REMARK   27  A    between atoms: _65  and  _66
REMARK   28  A    between atoms: _65  and  _68
REMARK   29  A    between atoms: _68  and  _69
REMARK   30  A    between atoms: _69  and  _70
REMARK   31  A    between atoms: _72  and  _74
REMARK   32  A    between atoms: _74  and  _75
REMARK   33  A    between atoms: _74  and  _77
REMARK   34  A    between atoms: _77  and  _78
REMARK   35  A    between atoms: _82  and  _83
REMARK   36  A    between atoms: _88  and  _90
REMARK   37  A    between atoms: _90  and  _91
REMARK   38  A    between atoms: _90  and  _93
REMARK   39  A    between atoms: _93  and  _94
REMARK   40  A    between atoms: _99  and  _101
REMARK   41  A    between atoms: _101  and  _102
REMARK   42  A    between atoms: _101  and  _104
REMARK   43  A    between atoms: _104  and  _105
REMARK   44  A    between atoms: _108  and  _110
REMARK   45  A    between atoms: _110  and  _111
REMARK   46  A    between atoms: _110  and  _113
REMARK   47  A    between atoms: _116  and  _118
REMARK   48  A    between atoms: _118  and  _119
REMARK   49  A    between atoms: _118  and  _121
REMARK   50  A    between atoms: _121  and  _122
REMARK   51  A    between atoms: _122  and  _123
REMARK   52  A    between atoms: _123  and  _124
REMARK   53  A    between atoms: _124  and  _125
REMARK   54  A    between atoms: _129  and  _131
REMARK   55  A    between atoms: _131  and  _132
REMARK   56  A    between atoms: _135  and  _137
REMARK   57  A    between atoms: _137  and  _138
REMARK   58  A    between atoms: _137  and  _140
REMARK   59  A    between atoms: _140  and  _141
REMARK   60  A    between atoms: _144  and  _146
REMARK   61  A    between atoms: _146  and  _147
REMARK   62  A    between atoms: _146  and  _149
REMARK   63  A    between atoms: _149  and  _150
REMARK   64  A    between atoms: _153  and  _155
REMARK   65  A    between atoms: _155  and  _156
REMARK   66  A    between atoms: _155  and  _158
REMARK   67  A    between atoms: _158  and  _159
REMARK   68  A    between atoms: _162  and  _164
REMARK   69  A    between atoms: _164  and  _165
REMARK   70  A    between atoms: _164  and  _167
REMARK   71  A    between atoms: _167  and  _168
REMARK   72  A    between atoms: _168  and  _169
REMARK   73  A    between atoms: _172  and  _174
REMARK   74  A    between atoms: _174  and  _175
REMARK   75  A    between atoms: _174  and  _177
REMARK   76  A    between atoms: _177  and  _178
REMARK   77  A    between atoms: _181  and  _183
REMARK   78  A    between atoms: _183  and  _184
REMARK   79  A    between atoms: _183  and  _186
REMARK   80  A    between atoms: _186  and  _187
REMARK   81  A    between atoms: _190  and  _192
REMARK   82  A    between atoms: _192  and  _193
REMARK   83  A    between atoms: _192  and  _195
REMARK   84  A    between atoms: _195  and  _196
REMARK   85  A    between atoms: _199  and  _201
REMARK   86  A    between atoms: _201  and  _202
REMARK   87  A    between atoms: _204  and  _206
REMARK   88  A    between atoms: _206  and  _207
REMARK   89  A    between atoms: _206  and  _209
REMARK   90  A    between atoms: _209  and  _210
REMARK   91  A    between atoms: _213  and  _215
REMARK   92  A    between atoms: _215  and  _216
REMARK   93  A    between atoms: _215  and  _218
REMARK   94  A    between atoms: _218  and  _219
REMARK   95  A    between atoms: _222  and  _224
REMARK   96  A    between atoms: _224  and  _225
REMARK   97  A    between atoms: _227  and  _229
REMARK   98  A    between atoms: _229  and  _230
REMARK   99  A    between atoms: _229  and  _232
REMARK  100  A    between atoms: _232  and  _233
REMARK  101  A    between atoms: _233  and  _234
REMARK  102  A    between atoms: _234  and  _235
REMARK  103  A    between atoms: _235  and  _236
REMARK  104  A    between atoms: _240  and  _242
REMARK  105  A    between atoms: _242  and  _243
REMARK  106  A    between atoms: _242  and  _245
REMARK  107  A    between atoms: _245  and  _246
REMARK  108  A    between atoms: _249  and  _251
REMARK  109  A    between atoms: _251  and  _252
REMARK  110  A    between atoms: _251  and  _254
REMARK  111  A    between atoms: _254  and  _255
REMARK  112  A    between atoms: _261  and  _263
REMARK  113  A    between atoms: _263  and  _264
REMARK  114  A    between atoms: _263  and  _266
REMARK  115  A    between atoms: _266  and  _267
REMARK                            x       y       z     vdW  Elec       q    Type
REMARK                         _______ _______ _______ _____ _____    ______ ____
ROOT
ATOM      1  CA  ASP A   1      29.418  -2.953  50.864  0.00  0.00    +0.144 C 
ENDROOT
BRANCH   1   2
ATOM      2  N   ASP A   1      28.713  -2.238  49.789  0.00  0.00    -0.239 NA
ATOM      3  H   ASP A   1      29.252  -1.576  49.195  0.00  0.00    +0.142 HD
ENDBRANCH   1   2
BRANCH   1   4
ATOM      4  C   ASP A   1      28.708  -2.918  52.237  0.00  0.00    +0.225 C 
ATOM      5  O   ASP A   1      29.015  -3.724  53.119  0.00  0.00    -0.287 OA
ENDBRANCH   1   4
BRANCH   1   6
ATOM      6  CB  ASP A   1      30.863  -2.438  50.988  0.00  0.00    +0.139 C 
BRANCH   6   7
ATOM      7  CG  ASP A   1      31.654  -2.579  49.675  0.00  0.00    +0.367 C 
ATOM      8  OD2 ASP A   1      32.005  -3.730  49.307  0.00  0.00    -0.246 OA
ATOM      9  OD1 ASP A   1      31.925  -1.536  49.016  0.00  0.00    -0.246 OA
ENDBRANCH   6   7
ENDBRANCH   1   6
TORSDOF 4
REMARK  Name = ../refined-set-2016/3elc/3elc_pocket.pdb
REMARK  115 active torsions:
REMARK  status: ('A' for Active; 'I' for Inactive)
REMARK    1  A    between atoms: _1  and  _3
REMARK    2  A    between atoms: _3  and  _4
REMARK    3  A    between atoms: _3  and  _6
REMARK    4  A    between atoms: _6  and  _7
REMARK    5  A    between atoms: _10  and  _12
REMARK    6  A    between atoms: _12  and  _13
REMARK    7  A    between atoms: _12  and  _15
REMARK    8  A    between atoms: _15  and  _16
REMARK    9  A    between atoms: _19  and  _21
REMARK   10  A    between atoms: _21  and  _22
REMARK   11  A    between atoms: _25  and  _27
REMARK   12  A    between atoms: _27  and  _28
REMARK   13  A    between atoms: _27  and  _30
REMARK   14  A    between atoms: _30  and  _31
REMARK   15  A    between atoms: _31  and  _32
REMARK   16  A    between atoms: _37  and  _39
REMARK   17  A    between atoms: _39  and  _40
REMARK   18  A    between atoms: _44  and  _45
REMARK   19  A    between atoms: _50  and  _52
REMARK   20  A    between atoms: _52  and  _53
REMARK   21  A    between atoms: _52  and  _55
REMARK   22  A    between atoms: _55  and  _56
REMARK   23  A    between atoms: _56  and  _57
REMARK   24  A    between atoms: _57  and  _58
REMARK   25  A    between atoms: _58  and  _59
REMARK   26  A    between atoms: _63  and  _65
REMARK   27  A    between atoms: _65  and  _66
REMARK   28  A    between atoms: _65  and  _68
REMARK   29  A    between atoms: _68  and  _69
REMARK   30  A    between atoms: _69  and  _70
REMARK   31  A    between atoms: _72  and  _74
REMARK   32  A    between atoms: _74  and  _75
REMARK   33  A    between atoms: _74  and  _77
REMARK   34  A    between atoms: _77  and  _78
REMARK   35  A    between atoms: _82  and  _83
REMARK   36  A    between atoms: _88  and  _90
REMARK   37  A    between atoms: _90  and  _91
REMARK   38  A    between atoms: _90  and  _93
REMARK   39  A    between atoms: _93  and  _94
REMARK   40  A    between atoms: _99  and  _101
REMARK   41  A    between atoms: _101  and  _102
REMARK   42  A    between atoms: _101  and  _104
REMARK   43  A    between atoms: _104  and  _105
REMARK   44  A    between atoms: _108  and  _110
REMARK   45  A    between atoms: _110  and  _111
REMARK   46  A    between atoms: _110  and  _113
REMARK   47  A    between atoms: _116  and  _118
REMARK   48  A    between atoms: _118  and  _119
REMARK   49  A    between atoms: _118  and  _121
REMARK   50  A    between atoms: _121  and  _122
REMARK   51  A    between atoms: _122  and  _123
REMARK   52  A    between atoms: _123  and  _124
REMARK   53  A    between atoms: _124  and  _125
REMARK   54  A    between atoms: _129  and  _131
REMARK   55  A    between atoms: _131  and  _132
REMARK   56  A    between atoms: _135  and  _137
REMARK   57  A    between atoms: _137  and  _138
REMARK   58  A    between atoms: _137  and  _140
REMARK   59  A    between atoms: _140  and  _141
REMARK   60  A    between atoms: _144  and  _146
REMARK   61  A    between atoms: _146  and  _147
REMARK   62  A    between atoms: _146  and  _149
REMARK   63  A    between atoms: _149  and  _150
REMARK   64  A    between atoms: _153  and  _155
REMARK   65  A    between atoms: _155  and  _156
REMARK   66  A    between atoms: _155  and  _158
REMARK   67  A    between atoms: _158  and  _159
REMARK   68  A    between atoms: _162  and  _164
REMARK   69  A    between atoms: _164  and  _165
REMARK   70  A    between atoms: _164  and  _167
REMARK   71  A    between atoms: _167  and  _168
REMARK   72  A    between atoms: _168  and  _169
REMARK   73  A    between atoms: _172  and  _174
REMARK   74  A    between atoms: _174  and  _175
REMARK   75  A    between atoms: _174  and  _177
REMARK   76  A    between atoms: _177  and  _178
REMARK   77  A    between atoms: _181  and  _183
REMARK   78  A    between atoms: _183  and  _184
REMARK   79  A    between atoms: _183  and  _186
REMARK   80  A    between atoms: _186  and  _187
REMARK   81  A    between atoms: _190  and  _192
REMARK   82  A    between atoms: _192  and  _193
REMARK   83  A    between atoms: _192  and  _195
REMARK   84  A    between atoms: _195  and  _196
REMARK   85  A    between atoms: _199  and  _201
REMARK   86  A    between atoms: _201  and  _202
REMARK   87  A    between atoms: _204  and  _206
REMARK   88  A    between atoms: _206  and  _207
REMARK   89  A    between atoms: _206  and  _209
REMARK   90  A    between atoms: _209  and  _210
REMARK   91  A    between atoms: _213  and  _215
REMARK   92  A    between atoms: _215  and  _216
REMARK   93  A    between atoms: _215  and  _218
REMARK   94  A    between atoms: _218  and  _219
REMARK   95  A    between atoms: _222  and  _224
REMARK   96  A    between atoms: _224  and  _225
REMARK   97  A    between atoms: _227  and  _229
REMARK   98  A    between atoms: _229  and  _230
REMARK   99  A    between atoms: _229  and  _232
REMARK  100  A    between atoms: _232  and  _233
REMARK  101  A    between atoms: _233  and  _234
REMARK  102  A    between atoms: _234  and  _235
REMARK  103  A    between atoms: _235  and  _236
REMARK  104  A    between atoms: _240  and  _242
REMARK  105  A    between atoms: _242  and  _243
REMARK  106  A    between atoms: _242  and  _245
REMARK  107  A    between atoms: _245  and  _246
REMARK  108  A    between atoms: _249  and  _251
REMARK  109  A    between atoms: _251  and  _252
REMARK  110  A    between atoms: _251  and  _254
REMARK  111  A    between atoms: _254  and  _255
REMARK  112  A    between atoms: _261  and  _263
REMARK  113  A    between atoms: _263  and  _264
REMARK  114  A    between atoms: _263  and  _266
REMARK  115  A    between atoms: _266  and  _267
REMARK                            x       y       z     vdW  Elec       q    Type
REMARK                         _______ _______ _______ _____ _____    ______ ____
ROOT
ATOM      1 ZN   UNL     1      33.342  -7.661  38.041  0.00  0.00    +0.000 Zn
ENDROOT
TORSDOF 0
REMARK  Name = ../refined-set-2016/3elc/3elc_pocket.pdb
REMARK  115 active torsions:
REMARK  status: ('A' for Active; 'I' for Inactive)
REMARK    1  A    between atoms: _1  and  _3
REMARK    2  A    between atoms: _3  and  _4
REMARK    3  A    between atoms: _3  and  _6
REMARK    4  A    between atoms: _6  and  _7
REMARK    5  A    between atoms: _10  and  _12
REMARK    6  A    between atoms: _12  and  _13
REMARK    7  A    between atoms: _12  and  _15
REMARK    8  A    between atoms: _15  and  _16
REMARK    9  A    between atoms: _19  and  _21
REMARK   10  A    between atoms: _21  and  _22
REMARK   11  A    between atoms: _25  and  _27
REMARK   12  A    between atoms: _27  and  _28
REMARK   13  A    between atoms: _27  and  _30
REMARK   14  A    between atoms: _30  and  _31
REMARK   15  A    between atoms: _31  and  _32
REMARK   16  A    between atoms: _37  and  _39
REMARK   17  A    between atoms: _39  and  _40
REMARK   18  A    between atoms: _44  and  _45
REMARK   19  A    between atoms: _50  and  _52
REMARK   20  A    between atoms: _52  and  _53
REMARK   21  A    between atoms: _52  and  _55
REMARK   22  A    between atoms: _55  and  _56
REMARK   23  A    between atoms: _56  and  _57
REMARK   24  A    between atoms: _57  and  _58
REMARK   25  A    between atoms: _58  and  _59
REMARK   26  A    between atoms: _63  and  _65
REMARK   27  A    between atoms: _65  and  _66
REMARK   28  A    between atoms: _65  and  _68
REMARK   29  A    between atoms: _68  and  _69
REMARK   30  A    between atoms: _69  and  _70
REMARK   31  A    between atoms: _72  and  _74
REMARK   32  A    between atoms: _74  and  _75
REMARK   33  A    between atoms: _74  and  _77
REMARK   34  A    between atoms: _77  and  _78
REMARK   35  A    between atoms: _82  and  _83
REMARK   36  A    between atoms: _88  and  _90
REMARK   37  A    between atoms: _90  and  _91
REMARK   38  A    between atoms: _90  and  _93
REMARK   39  A    between atoms: _93  and  _94
REMARK   40  A    between atoms: _99  and  _101
REMARK   41  A    between atoms: _101  and  _102
REMARK   42  A    between atoms: _101  and  _104
REMARK   43  A    between atoms: _104  and  _105
REMARK   44  A    between atoms: _108  and  _110
REMARK   45  A    between atoms: _110  and  _111
REMARK   46  A    between atoms: _110  and  _113
REMARK   47  A    between atoms: _116  and  _118
REMARK   48  A    between atoms: _118  and  _119
REMARK   49  A    between atoms: _118  and  _121
REMARK   50  A    between atoms: _121  and  _122
REMARK   51  A    between atoms: _122  and  _123
REMARK   52  A    between atoms: _123  and  _124
REMARK   53  A    between atoms: _124  and  _125
REMARK   54  A    between atoms: _129  and  _131
REMARK   55  A    between atoms: _131  and  _132
REMARK   56  A    between atoms: _135  and  _137
REMARK   57  A    between atoms: _137  and  _138
REMARK   58  A    between atoms: _137  and  _140
REMARK   59  A    between atoms: _140  and  _141
REMARK   60  A    between atoms: _144  and  _146
REMARK   61  A    between atoms: _146  and  _147
REMARK   62  A    between atoms: _146  and  _149
REMARK   63  A    between atoms: _149  and  _150
REMARK   64  A    between atoms: _153  and  _155
REMARK   65  A    between atoms: _155  and  _156
REMARK   66  A    between atoms: _155  and  _158
REMARK   67  A    between atoms: _158  and  _159
REMARK   68  A    between atoms: _162  and  _164
REMARK   69  A    between atoms: _164  and  _165
REMARK   70  A    between atoms: _164  and  _167
REMARK   71  A    between atoms: _167  and  _168
REMARK   72  A    between atoms: _168  and  _169
REMARK   73  A    between atoms: _172  and  _174
REMARK   74  A    between atoms: _174  and  _175
REMARK   75  A    between atoms: _174  and  _177
REMARK   76  A    between atoms: _177  and  _178
REMARK   77  A    between atoms: _181  and  _183
REMARK   78  A    between atoms: _183  and  _184
REMARK   79  A    between atoms: _183  and  _186
REMARK   80  A    between atoms: _186  and  _187
REMARK   81  A    between atoms: _190  and  _192
REMARK   82  A    between atoms: _192  and  _193
REMARK   83  A    between atoms: _192  and  _195
REMARK   84  A    between atoms: _195  and  _196
REMARK   85  A    between atoms: _199  and  _201
REMARK   86  A    between atoms: _201  and  _202
REMARK   87  A    between atoms: _204  and  _206
REMARK   88  A    between atoms: _206  and  _207
REMARK   89  A    between atoms: _206  and  _209
REMARK   90  A    between atoms: _209  and  _210
REMARK   91  A    between atoms: _213  and  _215
REMARK   92  A    between atoms: _215  and  _216
REMARK   93  A    between atoms: _215  and  _218
REMARK   94  A    between atoms: _218  and  _219
REMARK   95  A    between atoms: _222  and  _224
REMARK   96  A    between atoms: _224  and  _225
REMARK   97  A    between atoms: _227  and  _229
REMARK   98  A    between atoms: _229  and  _230
REMARK   99  A    between atoms: _229  and  _232
REMARK  100  A    between atoms: _232  and  _233
REMARK  101  A    between atoms: _233  and  _234
REMARK  102  A    between atoms: _234  and  _235
REMARK  103  A    between atoms: _235  and  _236
REMARK  104  A    between atoms: _240  and  _242
REMARK  105  A    between atoms: _242  and  _243
REMARK  106  A    between atoms: _242  and  _245
REMARK  107  A    between atoms: _245  and  _246
REMARK  108  A    between atoms: _249  and  _251
REMARK  109  A    between atoms: _251  and  _252
REMARK  110  A    between atoms: _251  and  _254
REMARK  111  A    between atoms: _254  and  _255
REMARK  112  A    between atoms: _261  and  _263
REMARK  113  A    between atoms: _263  and  _264
REMARK  114  A    between atoms: _263  and  _266
REMARK  115  A    between atoms: _266  and  _267
REMARK                            x       y       z     vdW  Elec       q    Type
REMARK                         _______ _______ _______ _____ _____    ______ ____
ROOT
ATOM      1  O   HOH     1      29.145   4.002  39.278  0.00  0.00    +0.000 OA
ENDROOT
TORSDOF 0
REMARK  Name = ../refined-set-2016/3elc/3elc_pocket.pdb
REMARK  115 active torsions:
REMARK  status: ('A' for Active; 'I' for Inactive)
REMARK    1  A    between atoms: _1  and  _3
REMARK    2  A    between atoms: _3  and  _4
REMARK    3  A    between atoms: _3  and  _6
REMARK    4  A    between atoms: _6  and  _7
REMARK    5  A    between atoms: _10  and  _12
REMARK    6  A    between atoms: _12  and  _13
REMARK    7  A    between atoms: _12  and  _15
REMARK    8  A    between atoms: _15  and  _16
REMARK    9  A    between atoms: _19  and  _21
REMARK   10  A    between atoms: _21  and  _22
REMARK   11  A    between atoms: _25  and  _27
REMARK   12  A    between atoms: _27  and  _28
REMARK   13  A    between atoms: _27  and  _30
REMARK   14  A    between atoms: _30  and  _31
REMARK   15  A    between atoms: _31  and  _32
REMARK   16  A    between atoms: _37  and  _39
REMARK   17  A    between atoms: _39  and  _40
REMARK   18  A    between atoms: _44  and  _45
REMARK   19  A    between atoms: _50  and  _52
REMARK   20  A    between atoms: _52  and  _53
REMARK   21  A    between atoms: _52  and  _55
REMARK   22  A    between atoms: _55  and  _56
REMARK   23  A    between atoms: _56  and  _57
REMARK   24  A    between atoms: _57  and  _58
REMARK   25  A    between atoms: _58  and  _59
REMARK   26  A    between atoms: _63  and  _65
REMARK   27  A    between atoms: _65  and  _66
REMARK   28  A    between atoms: _65  and  _68
REMARK   29  A    between atoms: _68  and  _69
REMARK   30  A    between atoms: _69  and  _70
REMARK   31  A    between atoms: _72  and  _74
REMARK   32  A    between atoms: _74  and  _75
REMARK   33  A    between atoms: _74  and  _77
REMARK   34  A    between atoms: _77  and  _78
REMARK   35  A    between atoms: _82  and  _83
REMARK   36  A    between atoms: _88  and  _90
REMARK   37  A    between atoms: _90  and  _91
REMARK   38  A    between atoms: _90  and  _93
REMARK   39  A    between atoms: _93  and  _94
REMARK   40  A    between atoms: _99  and  _101
REMARK   41  A    between atoms: _101  and  _102
REMARK   42  A    between atoms: _101  and  _104
REMARK   43  A    between atoms: _104  and  _105
REMARK   44  A    between atoms: _108  and  _110
REMARK   45  A    between atoms: _110  and  _111
REMARK   46  A    between atoms: _110  and  _113
REMARK   47  A    between atoms: _116  and  _118
REMARK   48  A    between atoms: _118  and  _119
REMARK   49  A    between atoms: _118  and  _121
REMARK   50  A    between atoms: _121  and  _122
REMARK   51  A    between atoms: _122  and  _123
REMARK   52  A    between atoms: _123  and  _124
REMARK   53  A    between atoms: _124  and  _125
REMARK   54  A    between atoms: _129  and  _131
REMARK   55  A    between atoms: _131  and  _132
REMARK   56  A    between atoms: _135  and  _137
REMARK   57  A    between atoms: _137  and  _138
REMARK   58  A    between atoms: _137  and  _140
REMARK   59  A    between atoms: _140  and  _141
REMARK   60  A    between atoms: _144  and  _146
REMARK   61  A    between atoms: _146  and  _147
REMARK   62  A    between atoms: _146  and  _149
REMARK   63  A    between atoms: _149  and  _150
REMARK   64  A    between atoms: _153  and  _155
REMARK   65  A    between atoms: _155  and  _156
REMARK   66  A    between atoms: _155  and  _158
REMARK   67  A    between atoms: _158  and  _159
REMARK   68  A    between atoms: _162  and  _164
REMARK   69  A    between atoms: _164  and  _165
REMARK   70  A    between atoms: _164  and  _167
REMARK   71  A    between atoms: _167  and  _168
REMARK   72  A    between atoms: _168  and  _169
REMARK   73  A    between atoms: _172  and  _174
REMARK   74  A    between atoms: _174  and  _175
REMARK   75  A    between atoms: _174  and  _177
REMARK   76  A    between atoms: _177  and  _178
REMARK   77  A    between atoms: _181  and  _183
REMARK   78  A    between atoms: _183  and  _184
REMARK   79  A    between atoms: _183  and  _186
REMARK   80  A    between atoms: _186  and  _187
REMARK   81  A    between atoms: _190  and  _192
REMARK   82  A    between atoms: _192  and  _193
REMARK   83  A    between atoms: _192  and  _195
REMARK   84  A    between atoms: _195  and  _196
REMARK   85  A    between atoms: _199  and  _201
REMARK   86  A    between atoms: _201  and  _202
REMARK   87  A    between atoms: _204  and  _206
REMARK   88  A    between atoms: _206  and  _207
REMARK   89  A    between atoms: _206  and  _209
REMARK   90  A    between atoms: _209  and  _210
REMARK   91  A    between atoms: _213  and  _215
REMARK   92  A    between atoms: _215  and  _216
REMARK   93  A    between atoms: _215  and  _218
REMARK   94  A    between atoms: _218  and  _219
REMARK   95  A    between atoms: _222  and  _224
REMARK   96  A    between atoms: _224  and  _225
REMARK   97  A    between atoms: _227  and  _229
REMARK   98  A    between atoms: _229  and  _230
REMARK   99  A    between atoms: _229  and  _232
REMARK  100  A    between atoms: _232  and  _233
REMARK  101  A    between atoms: _233  and  _234
REMARK  102  A    between atoms: _234  and  _235
REMARK  103  A    between atoms: _235  and  _236
REMARK  104  A    between atoms: _240  and  _242
REMARK  105  A    between atoms: _242  and  _243
REMARK  106  A    between atoms: _242  and  _245
REMARK  107  A    between atoms: _245  and  _246
REMARK  108  A    between atoms: _249  and  _251
REMARK  109  A    between atoms: _251  and  _252
REMARK  110  A    between atoms: _251  and  _254
REMARK  111  A    between atoms: _254  and  _255
REMARK  112  A    between atoms: _261  and  _263
REMARK  113  A    between atoms: _263  and  _264
REMARK  114  A    between atoms: _263  and  _266
REMARK  115  A    between atoms: _266  and  _267
REMARK                            x       y       z     vdW  Elec       q    Type
REMARK                         _______ _______ _______ _____ _____    ______ ____
ROOT
ATOM      1  O   HOH     1      41.256   1.294  35.544  0.00  0.00    +0.000 OA
ENDROOT
TORSDOF 0
REMARK  Name = ../refined-set-2016/3elc/3elc_pocket.pdb
REMARK  115 active torsions:
REMARK  status: ('A' for Active; 'I' for Inactive)
REMARK    1  A    between atoms: _1  and  _3
REMARK    2  A    between atoms: _3  and  _4
REMARK    3  A    between atoms: _3  and  _6
REMARK    4  A    between atoms: _6  and  _7
REMARK    5  A    between atoms: _10  and  _12
REMARK    6  A    between atoms: _12  and  _13
REMARK    7  A    between atoms: _12  and  _15
REMARK    8  A    between atoms: _15  and  _16
REMARK    9  A    between atoms: _19  and  _21
REMARK   10  A    between atoms: _21  and  _22
REMARK   11  A    between atoms: _25  and  _27
REMARK   12  A    between atoms: _27  and  _28
REMARK   13  A    between atoms: _27  and  _30
REMARK   14  A    between atoms: _30  and  _31
REMARK   15  A    between atoms: _31  and  _32
REMARK   16  A    between atoms: _37  and  _39
REMARK   17  A    between atoms: _39  and  _40
REMARK   18  A    between atoms: _44  and  _45
REMARK   19  A    between atoms: _50  and  _52
REMARK   20  A    between atoms: _52  and  _53
REMARK   21  A    between atoms: _52  and  _55
REMARK   22  A    between atoms: _55  and  _56
REMARK   23  A    between atoms: _56  and  _57
REMARK   24  A    between atoms: _57  and  _58
REMARK   25  A    between atoms: _58  and  _59
REMARK   26  A    between atoms: _63  and  _65
REMARK   27  A    between atoms: _65  and  _66
REMARK   28  A    between atoms: _65  and  _68
REMARK   29  A    between atoms: _68  and  _69
REMARK   30  A    between atoms: _69  and  _70
REMARK   31  A    between atoms: _72  and  _74
REMARK   32  A    between atoms: _74  and  _75
REMARK   33  A    between atoms: _74  and  _77
REMARK   34  A    between atoms: _77  and  _78
REMARK   35  A    between atoms: _82  and  _83
REMARK   36  A    between atoms: _88  and  _90
REMARK   37  A    between atoms: _90  and  _91
REMARK   38  A    between atoms: _90  and  _93
REMARK   39  A    between atoms: _93  and  _94
REMARK   40  A    between atoms: _99  and  _101
REMARK   41  A    between atoms: _101  and  _102
REMARK   42  A    between atoms: _101  and  _104
REMARK   43  A    between atoms: _104  and  _105
REMARK   44  A    between atoms: _108  and  _110
REMARK   45  A    between atoms: _110  and  _111
REMARK   46  A    between atoms: _110  and  _113
REMARK   47  A    between atoms: _116  and  _118
REMARK   48  A    between atoms: _118  and  _119
REMARK   49  A    between atoms: _118  and  _121
REMARK   50  A    between atoms: _121  and  _122
REMARK   51  A    between atoms: _122  and  _123
REMARK   52  A    between atoms: _123  and  _124
REMARK   53  A    between atoms: _124  and  _125
REMARK   54  A    between atoms: _129  and  _131
REMARK   55  A    between atoms: _131  and  _132
REMARK   56  A    between atoms: _135  and  _137
REMARK   57  A    between atoms: _137  and  _138
REMARK   58  A    between atoms: _137  and  _140
REMARK   59  A    between atoms: _140  and  _141
REMARK   60  A    between atoms: _144  and  _146
REMARK   61  A    between atoms: _146  and  _147
REMARK   62  A    between atoms: _146  and  _149
REMARK   63  A    between atoms: _149  and  _150
REMARK   64  A    between atoms: _153  and  _155
REMARK   65  A    between atoms: _155  and  _156
REMARK   66  A    between atoms: _155  and  _158
REMARK   67  A    between atoms: _158  and  _159
REMARK   68  A    between atoms: _162  and  _164
REMARK   69  A    between atoms: _164  and  _165
REMARK   70  A    between atoms: _164  and  _167
REMARK   71  A    between atoms: _167  and  _168
REMARK   72  A    between atoms: _168  and  _169
REMARK   73  A    between atoms: _172  and  _174
REMARK   74  A    between atoms: _174  and  _175
REMARK   75  A    between atoms: _174  and  _177
REMARK   76  A    between atoms: _177  and  _178
REMARK   77  A    between atoms: _181  and  _183
REMARK   78  A    between atoms: _183  and  _184
REMARK   79  A    between atoms: _183  and  _186
REMARK   80  A    between atoms: _186  and  _187
REMARK   81  A    between atoms: _190  and  _192
REMARK   82  A    between atoms: _192  and  _193
REMARK   83  A    between atoms: _192  and  _195
REMARK   84  A    between atoms: _195  and  _196
REMARK   85  A    between atoms: _199  and  _201
REMARK   86  A    between atoms: _201  and  _202
REMARK   87  A    between atoms: _204  and  _206
REMARK   88  A    between atoms: _206  and  _207
REMARK   89  A    between atoms: _206  and  _209
REMARK   90  A    between atoms: _209  and  _210
REMARK   91  A    between atoms: _213  and  _215
REMARK   92  A    between atoms: _215  and  _216
REMARK   93  A    between atoms: _215  and  _218
REMARK   94  A    between atoms: _218  and  _219
REMARK   95  A    between atoms: _222  and  _224
REMARK   96  A    between atoms: _224  and  _225
REMARK   97  A    between atoms: _227  and  _229
REMARK   98  A    between atoms: _229  and  _230
REMARK   99  A    between atoms: _229  and  _232
REMARK  100  A    between atoms: _232  and  _233
REMARK  101  A    between atoms: _233  and  _234
REMARK  102  A    between atoms: _234  and  _235
REMARK  103  A    between atoms: _235  and  _236
REMARK  104  A    between atoms: _240  and  _242
REMARK  105  A    between atoms: _242  and  _243
REMARK  106  A    between atoms: _242  and  _245
REMARK  107  A    between atoms: _245  and  _246
REMARK  108  A    between atoms: _249  and  _251
REMARK  109  A    between atoms: _251  and  _252
REMARK  110  A    between atoms: _251  and  _254
REMARK  111  A    between atoms: _254  and  _255
REMARK  112  A    between atoms: _261  and  _263
REMARK  113  A    between atoms: _263  and  _264
REMARK  114  A    between atoms: _263  and  _266
REMARK  115  A    between atoms: _266  and  _267
REMARK                            x       y       z     vdW  Elec       q    Type
REMARK                         _______ _______ _______ _____ _____    ______ ____
ROOT
ATOM      1  O   HOH     1      37.147   3.063  42.765  0.00  0.00    +0.000 OA
ENDROOT
TORSDOF 0
REMARK  Name = ../refined-set-2016/3elc/3elc_pocket.pdb
REMARK  115 active torsions:
REMARK  status: ('A' for Active; 'I' for Inactive)
REMARK    1  A    between atoms: _1  and  _3
REMARK    2  A    between atoms: _3  and  _4
REMARK    3  A    between atoms: _3  and  _6
REMARK    4  A    between atoms: _6  and  _7
REMARK    5  A    between atoms: _10  and  _12
REMARK    6  A    between atoms: _12  and  _13
REMARK    7  A    between atoms: _12  and  _15
REMARK    8  A    between atoms: _15  and  _16
REMARK    9  A    between atoms: _19  and  _21
REMARK   10  A    between atoms: _21  and  _22
REMARK   11  A    between atoms: _25  and  _27
REMARK   12  A    between atoms: _27  and  _28
REMARK   13  A    between atoms: _27  and  _30
REMARK   14  A    between atoms: _30  and  _31
REMARK   15  A    between atoms: _31  and  _32
REMARK   16  A    between atoms: _37  and  _39
REMARK   17  A    between atoms: _39  and  _40
REMARK   18  A    between atoms: _44  and  _45
REMARK   19  A    between atoms: _50  and  _52
REMARK   20  A    between atoms: _52  and  _53
REMARK   21  A    between atoms: _52  and  _55
REMARK   22  A    between atoms: _55  and  _56
REMARK   23  A    between atoms: _56  and  _57
REMARK   24  A    between atoms: _57  and  _58
REMARK   25  A    between atoms: _58  and  _59
REMARK   26  A    between atoms: _63  and  _65
REMARK   27  A    between atoms: _65  and  _66
REMARK   28  A    between atoms: _65  and  _68
REMARK   29  A    between atoms: _68  and  _69
REMARK   30  A    between atoms: _69  and  _70
REMARK   31  A    between atoms: _72  and  _74
REMARK   32  A    between atoms: _74  and  _75
REMARK   33  A    between atoms: _74  and  _77
REMARK   34  A    between atoms: _77  and  _78
REMARK   35  A    between atoms: _82  and  _83
REMARK   36  A    between atoms: _88  and  _90
REMARK   37  A    between atoms: _90  and  _91
REMARK   38  A    between atoms: _90  and  _93
REMARK   39  A    between atoms: _93  and  _94
REMARK   40  A    between atoms: _99  and  _101
REMARK   41  A    between atoms: _101  and  _102
REMARK   42  A    between atoms: _101  and  _104
REMARK   43  A    between atoms: _104  and  _105
REMARK   44  A    between atoms: _108  and  _110
REMARK   45  A    between atoms: _110  and  _111
REMARK   46  A    between atoms: _110  and  _113
REMARK   47  A    between atoms: _116  and  _118
REMARK   48  A    between atoms: _118  and  _119
REMARK   49  A    between atoms: _118  and  _121
REMARK   50  A    between atoms: _121  and  _122
REMARK   51  A    between atoms: _122  and  _123
REMARK   52  A    between atoms: _123  and  _124
REMARK   53  A    between atoms: _124  and  _125
REMARK   54  A    between atoms: _129  and  _131
REMARK   55  A    between atoms: _131  and  _132
REMARK   56  A    between atoms: _135  and  _137
REMARK   57  A    between atoms: _137  and  _138
REMARK   58  A    between atoms: _137  and  _140
REMARK   59  A    between atoms: _140  and  _141
REMARK   60  A    between atoms: _144  and  _146
REMARK   61  A    between atoms: _146  and  _147
REMARK   62  A    between atoms: _146  and  _149
REMARK   63  A    between atoms: _149  and  _150
REMARK   64  A    between atoms: _153  and  _155
REMARK   65  A    between atoms: _155  and  _156
REMARK   66  A    between atoms: _155  and  _158
REMARK   67  A    between atoms: _158  and  _159
REMARK   68  A    between atoms: _162  and  _164
REMARK   69  A    between atoms: _164  and  _165
REMARK   70  A    between atoms: _164  and  _167
REMARK   71  A    between atoms: _167  and  _168
REMARK   72  A    between atoms: _168  and  _169
REMARK   73  A    between atoms: _172  and  _174
REMARK   74  A    between atoms: _174  and  _175
REMARK   75  A    between atoms: _174  and  _177
REMARK   76  A    between atoms: _177  and  _178
REMARK   77  A    between atoms: _181  and  _183
REMARK   78  A    between atoms: _183  and  _184
REMARK   79  A    between atoms: _183  and  _186
REMARK   80  A    between atoms: _186  and  _187
REMARK   81  A    between atoms: _190  and  _192
REMARK   82  A    between atoms: _192  and  _193
REMARK   83  A    between atoms: _192  and  _195
REMARK   84  A    between atoms: _195  and  _196
REMARK   85  A    between atoms: _199  and  _201
REMARK   86  A    between atoms: _201  and  _202
REMARK   87  A    between atoms: _204  and  _206
REMARK   88  A    between atoms: _206  and  _207
REMARK   89  A    between atoms: _206  and  _209
REMARK   90  A    between atoms: _209  and  _210
REMARK   91  A    between atoms: _213  and  _215
REMARK   92  A    between atoms: _215  and  _216
REMARK   93  A    between atoms: _215  and  _218
REMARK   94  A    between atoms: _218  and  _219
REMARK   95  A    between atoms: _222  and  _224
REMARK   96  A    between atoms: _224  and  _225
REMARK   97  A    between atoms: _227  and  _229
REMARK   98  A    between atoms: _229  and  _230
REMARK   99  A    between atoms: _229  and  _232
REMARK  100  A    between atoms: _232  and  _233
REMARK  101  A    between atoms: _233  and  _234
REMARK  102  A    between atoms: _234  and  _235
REMARK  103  A    between atoms: _235  and  _236
REMARK  104  A    between atoms: _240  and  _242
REMARK  105  A    between atoms: _242  and  _243
REMARK  106  A    between atoms: _242  and  _245
REMARK  107  A    between atoms: _245  and  _246
REMARK  108  A    between atoms: _249  and  _251
REMARK  109  A    between atoms: _251  and  _252
REMARK  110  A    between atoms: _251  and  _254
REMARK  111  A    between atoms: _254  and  _255
REMARK  112  A    between atoms: _261  and  _263
REMARK  113  A    between atoms: _263  and  _264
REMARK  114  A    between atoms: _263  and  _266
REMARK  115  A    between atoms: _266  and  _267
REMARK                            x       y       z     vdW  Elec       q    Type
REMARK                         _______ _______ _______ _____ _____    ______ ____
ROOT
ATOM      1  O   HOH     1      35.939  -5.043  37.430  0.00  0.00    +0.000 OA
ENDROOT
TORSDOF 0
REMARK  Name = ../refined-set-2016/3elc/3elc_pocket.pdb
REMARK  115 active torsions:
REMARK  status: ('A' for Active; 'I' for Inactive)
REMARK    1  A    between atoms: _1  and  _3
REMARK    2  A    between atoms: _3  and  _4
REMARK    3  A    between atoms: _3  and  _6
REMARK    4  A    between atoms: _6  and  _7
REMARK    5  A    between atoms: _10  and  _12
REMARK    6  A    between atoms: _12  and  _13
REMARK    7  A    between atoms: _12  and  _15
REMARK    8  A    between atoms: _15  and  _16
REMARK    9  A    between atoms: _19  and  _21
REMARK   10  A    between atoms: _21  and  _22
REMARK   11  A    between atoms: _25  and  _27
REMARK   12  A    between atoms: _27  and  _28
REMARK   13  A    between atoms: _27  and  _30
REMARK   14  A    between atoms: _30  and  _31
REMARK   15  A    between atoms: _31  and  _32
REMARK   16  A    between atoms: _37  and  _39
REMARK   17  A    between atoms: _39  and  _40
REMARK   18  A    between atoms: _44  and  _45
REMARK   19  A    between atoms: _50  and  _52
REMARK   20  A    between atoms: _52  and  _53
REMARK   21  A    between atoms: _52  and  _55
REMARK   22  A    between atoms: _55  and  _56
REMARK   23  A    between atoms: _56  and  _57
REMARK   24  A    between atoms: _57  and  _58
REMARK   25  A    between atoms: _58  and  _59
REMARK   26  A    between atoms: _63  and  _65
REMARK   27  A    between atoms: _65  and  _66
REMARK   28  A    between atoms: _65  and  _68
REMARK   29  A    between atoms: _68  and  _69
REMARK   30  A    between atoms: _69  and  _70
REMARK   31  A    between atoms: _72  and  _74
REMARK   32  A    between atoms: _74  and  _75
REMARK   33  A    between atoms: _74  and  _77
REMARK   34  A    between atoms: _77  and  _78
REMARK   35  A    between atoms: _82  and  _83
REMARK   36  A    between atoms: _88  and  _90
REMARK   37  A    between atoms: _90  and  _91
REMARK   38  A    between atoms: _90  and  _93
REMARK   39  A    between atoms: _93  and  _94
REMARK   40  A    between atoms: _99  and  _101
REMARK   41  A    between atoms: _101  and  _102
REMARK   42  A    between atoms: _101  and  _104
REMARK   43  A    between atoms: _104  and  _105
REMARK   44  A    between atoms: _108  and  _110
REMARK   45  A    between atoms: _110  and  _111
REMARK   46  A    between atoms: _110  and  _113
REMARK   47  A    between atoms: _116  and  _118
REMARK   48  A    between atoms: _118  and  _119
REMARK   49  A    between atoms: _118  and  _121
REMARK   50  A    between atoms: _121  and  _122
REMARK   51  A    between atoms: _122  and  _123
REMARK   52  A    between atoms: _123  and  _124
REMARK   53  A    between atoms: _124  and  _125
REMARK   54  A    between atoms: _129  and  _131
REMARK   55  A    between atoms: _131  and  _132
REMARK   56  A    between atoms: _135  and  _137
REMARK   57  A    between atoms: _137  and  _138
REMARK   58  A    between atoms: _137  and  _140
REMARK   59  A    between atoms: _140  and  _141
REMARK   60  A    between atoms: _144  and  _146
REMARK   61  A    between atoms: _146  and  _147
REMARK   62  A    between atoms: _146  and  _149
REMARK   63  A    between atoms: _149  and  _150
REMARK   64  A    between atoms: _153  and  _155
REMARK   65  A    between atoms: _155  and  _156
REMARK   66  A    between atoms: _155  and  _158
REMARK   67  A    between atoms: _158  and  _159
REMARK   68  A    between atoms: _162  and  _164
REMARK   69  A    between atoms: _164  and  _165
REMARK   70  A    between atoms: _164  and  _167
REMARK   71  A    between atoms: _167  and  _168
REMARK   72  A    between atoms: _168  and  _169
REMARK   73  A    between atoms: _172  and  _174
REMARK   74  A    between atoms: _174  and  _175
REMARK   75  A    between atoms: _174  and  _177
REMARK   76  A    between atoms: _177  and  _178
REMARK   77  A    between atoms: _181  and  _183
REMARK   78  A    between atoms: _183  and  _184
REMARK   79  A    between atoms: _183  and  _186
REMARK   80  A    between atoms: _186  and  _187
REMARK   81  A    between atoms: _190  and  _192
REMARK   82  A    between atoms: _192  and  _193
REMARK   83  A    between atoms: _192  and  _195
REMARK   84  A    between atoms: _195  and  _196
REMARK   85  A    between atoms: _199  and  _201
REMARK   86  A    between atoms: _201  and  _202
REMARK   87  A    between atoms: _204  and  _206
REMARK   88  A    between atoms: _206  and  _207
REMARK   89  A    between atoms: _206  and  _209
REMARK   90  A    between atoms: _209  and  _210
REMARK   91  A    between atoms: _213  and  _215
REMARK   92  A    between atoms: _215  and  _216
REMARK   93  A    between atoms: _215  and  _218
REMARK   94  A    between atoms: _218  and  _219
REMARK   95  A    between atoms: _222  and  _224
REMARK   96  A    between atoms: _224  and  _225
REMARK   97  A    between atoms: _227  and  _229
REMARK   98  A    between atoms: _229  and  _230
REMARK   99  A    between atoms: _229  and  _232
REMARK  100  A    between atoms: _232  and  _233
REMARK  101  A    between atoms: _233  and  _234
REMARK  102  A    between atoms: _234  and  _235
REMARK  103  A    between atoms: _235  and  _236
REMARK  104  A    between atoms: _240  and  _242
REMARK  105  A    between atoms: _242  and  _243
REMARK  106  A    between atoms: _242  and  _245
REMARK  107  A    between atoms: _245  and  _246
REMARK  108  A    between atoms: _249  and  _251
REMARK  109  A    between atoms: _251  and  _252
REMARK  110  A    between atoms: _251  and  _254
REMARK  111  A    between atoms: _254  and  _255
REMARK  112  A    between atoms: _261  and  _263
REMARK  113  A    between atoms: _263  and  _264
REMARK  114  A    between atoms: _263  and  _266
REMARK  115  A    between atoms: _266  and  _267
REMARK                            x       y       z     vdW  Elec       q    Type
REMARK                         _______ _______ _______ _____ _____    ______ ____
ROOT
ATOM      1  O   HOH     1      33.960  -7.405  41.743  0.00  0.00    +0.000 OA
ENDROOT
TORSDOF 0
REMARK  Name = ../refined-set-2016/3elc/3elc_pocket.pdb
REMARK  115 active torsions:
REMARK  status: ('A' for Active; 'I' for Inactive)
REMARK    1  A    between atoms: _1  and  _3
REMARK    2  A    between atoms: _3  and  _4
REMARK    3  A    between atoms: _3  and  _6
REMARK    4  A    between atoms: _6  and  _7
REMARK    5  A    between atoms: _10  and  _12
REMARK    6  A    between atoms: _12  and  _13
REMARK    7  A    between atoms: _12  and  _15
REMARK    8  A    between atoms: _15  and  _16
REMARK    9  A    between atoms: _19  and  _21
REMARK   10  A    between atoms: _21  and  _22
REMARK   11  A    between atoms: _25  and  _27
REMARK   12  A    between atoms: _27  and  _28
REMARK   13  A    between atoms: _27  and  _30
REMARK   14  A    between atoms: _30  and  _31
REMARK   15  A    between atoms: _31  and  _32
REMARK   16  A    between atoms: _37  and  _39
REMARK   17  A    between atoms: _39  and  _40
REMARK   18  A    between atoms: _44  and  _45
REMARK   19  A    between atoms: _50  and  _52
REMARK   20  A    between atoms: _52  and  _53
REMARK   21  A    between atoms: _52  and  _55
REMARK   22  A    between atoms: _55  and  _56
REMARK   23  A    between atoms: _56  and  _57
REMARK   24  A    between atoms: _57  and  _58
REMARK   25  A    between atoms: _58  and  _59
REMARK   26  A    between atoms: _63  and  _65
REMARK   27  A    between atoms: _65  and  _66
REMARK   28  A    between atoms: _65  and  _68
REMARK   29  A    between atoms: _68  and  _69
REMARK   30  A    between atoms: _69  and  _70
REMARK   31  A    between atoms: _72  and  _74
REMARK   32  A    between atoms: _74  and  _75
REMARK   33  A    between atoms: _74  and  _77
REMARK   34  A    between atoms: _77  and  _78
REMARK   35  A    between atoms: _82  and  _83
REMARK   36  A    between atoms: _88  and  _90
REMARK   37  A    between atoms: _90  and  _91
REMARK   38  A    between atoms: _90  and  _93
REMARK   39  A    between atoms: _93  and  _94
REMARK   40  A    between atoms: _99  and  _101
REMARK   41  A    between atoms: _101  and  _102
REMARK   42  A    between atoms: _101  and  _104
REMARK   43  A    between atoms: _104  and  _105
REMARK   44  A    between atoms: _108  and  _110
REMARK   45  A    between atoms: _110  and  _111
REMARK   46  A    between atoms: _110  and  _113
REMARK   47  A    between atoms: _116  and  _118
REMARK   48  A    between atoms: _118  and  _119
REMARK   49  A    between atoms: _118  and  _121
REMARK   50  A    between atoms: _121  and  _122
REMARK   51  A    between atoms: _122  and  _123
REMARK   52  A    between atoms: _123  and  _124
REMARK   53  A    between atoms: _124  and  _125
REMARK   54  A    between atoms: _129  and  _131
REMARK   55  A    between atoms: _131  and  _132
REMARK   56  A    between atoms: _135  and  _137
REMARK   57  A    between atoms: _137  and  _138
REMARK   58  A    between atoms: _137  and  _140
REMARK   59  A    between atoms: _140  and  _141
REMARK   60  A    between atoms: _144  and  _146
REMARK   61  A    between atoms: _146  and  _147
REMARK   62  A    between atoms: _146  and  _149
REMARK   63  A    between atoms: _149  and  _150
REMARK   64  A    between atoms: _153  and  _155
REMARK   65  A    between atoms: _155  and  _156
REMARK   66  A    between atoms: _155  and  _158
REMARK   67  A    between atoms: _158  and  _159
REMARK   68  A    between atoms: _162  and  _164
REMARK   69  A    between atoms: _164  and  _165
REMARK   70  A    between atoms: _164  and  _167
REMARK   71  A    between atoms: _167  and  _168
REMARK   72  A    between atoms: _168  and  _169
REMARK   73  A    between atoms: _172  and  _174
REMARK   74  A    between atoms: _174  and  _175
REMARK   75  A    between atoms: _174  and  _177
REMARK   76  A    between atoms: _177  and  _178
REMARK   77  A    between atoms: _181  and  _183
REMARK   78  A    between atoms: _183  and  _184
REMARK   79  A    between atoms: _183  and  _186
REMARK   80  A    between atoms: _186  and  _187
REMARK   81  A    between atoms: _190  and  _192
REMARK   82  A    between atoms: _192  and  _193
REMARK   83  A    between atoms: _192  and  _195
REMARK   84  A    between atoms: _195  and  _196
REMARK   85  A    between atoms: _199  and  _201
REMARK   86  A    between atoms: _201  and  _202
REMARK   87  A    between atoms: _204  and  _206
REMARK   88  A    between atoms: _206  and  _207
REMARK   89  A    between atoms: _206  and  _209
REMARK   90  A    between atoms: _209  and  _210
REMARK   91  A    between atoms: _213  and  _215
REMARK   92  A    between atoms: _215  and  _216
REMARK   93  A    between atoms: _215  and  _218
REMARK   94  A    between atoms: _218  and  _219
REMARK   95  A    between atoms: _222  and  _224
REMARK   96  A    between atoms: _224  and  _225
REMARK   97  A    between atoms: _227  and  _229
REMARK   98  A    between atoms: _229  and  _230
REMARK   99  A    between atoms: _229  and  _232
REMARK  100  A    between atoms: _232  and  _233
REMARK  101  A    between atoms: _233  and  _234
REMARK  102  A    between atoms: _234  and  _235
REMARK  103  A    between atoms: _235  and  _236
REMARK  104  A    between atoms: _240  and  _242
REMARK  105  A    between atoms: _242  and  _243
REMARK  106  A    between atoms: _242  and  _245
REMARK  107  A    between atoms: _245  and  _246
REMARK  108  A    between atoms: _249  and  _251
REMARK  109  A    between atoms: _251  and  _252
REMARK  110  A    between atoms: _251  and  _254
REMARK  111  A    between atoms: _254  and  _255
REMARK  112  A    between atoms: _261  and  _263
REMARK  113  A    between atoms: _263  and  _264
REMARK  114  A    between atoms: _263  and  _266
REMARK  115  A    between atoms: _266  and  _267
REMARK                            x       y       z     vdW  Elec       q    Type
REMARK                         _______ _______ _______ _____ _____    ______ ____
ROOT
ATOM      1  O   HOH     1      32.944   0.736  49.959  0.00  0.00    +0.000 OA
ENDROOT
TORSDOF 0
