REMARK  Name = ../refined-set-2016/2fgu/2fgu_pocket.pdb
REMARK  231 active torsions:
REMARK  status: ('A' for Active; 'I' for Inactive)
REMARK    1  A    between atoms: _1  and  _3
REMARK    2  A    between atoms: _3  and  _4
REMARK    3  A    between atoms: _3  and  _6
REMARK    4  A    between atoms: _6  and  _7
REMARK    5  A    between atoms: _7  and  _8
REMARK    6  A    between atoms: _8  and  _9
REMARK    7  A    between atoms: _18  and  _20
REMARK    8  A    between atoms: _20  and  _21
REMARK    9  A    between atoms: _20  and  _23
REMARK   10  A    between atoms: _23  and  _24
REMARK   11  A    between atoms: _27  and  _29
REMARK   12  A    between atoms: _29  and  _30
REMARK   13  A    between atoms: _29  and  _32
REMARK   14  A    between atoms: _32  and  _33
REMARK   15  A    between atoms: _36  and  _38
REMARK   16  A    between atoms: _38  and  _39
REMARK   17  A    between atoms: _38  and  _41
REMARK   18  A    between atoms: _41  and  _42
REMARK   19  A    between atoms: _45  and  _47
REMARK   20  A    between atoms: _47  and  _48
REMARK   21  A    between atoms: _47  and  _50
REMARK   22  A    between atoms: _50  and  _51
REMARK   23  A    between atoms: _54  and  _56
REMARK   24  A    between atoms: _56  and  _57
REMARK   25  A    between atoms: _59  and  _61
REMARK   26  A    between atoms: _61  and  _62
REMARK   27  A    between atoms: _65  and  _67
REMARK   28  A    between atoms: _67  and  _68
REMARK   29  A    between atoms: _67  and  _70
REMARK   30  A    between atoms: _70  and  _71
REMARK   31  A    between atoms: _74  and  _76
REMARK   32  A    between atoms: _76  and  _77
REMARK   33  A    between atoms: _76  and  _79
REMARK   34  A    between atoms: _79  and  _80
REMARK   35  A    between atoms: _83  and  _85
REMARK   36  A    between atoms: _85  and  _86
REMARK   37  A    between atoms: _85  and  _88
REMARK   38  A    between atoms: _88  and  _89
REMARK   39  A    between atoms: _92  and  _94
REMARK   40  A    between atoms: _94  and  _95
REMARK   41  A    between atoms: _94  and  _97
REMARK   42  A    between atoms: _100  and  _102
REMARK   43  A    between atoms: _102  and  _103
REMARK   44  A    between atoms: _102  and  _105
REMARK   45  A    between atoms: _105  and  _106
REMARK   46  A    between atoms: _106  and  _107
REMARK   47  A    between atoms: _107  and  _108
REMARK   48  A    between atoms: _108  and  _109
REMARK   49  A    between atoms: _113  and  _115
REMARK   50  A    between atoms: _115  and  _116
REMARK   51  A    between atoms: _115  and  _118
REMARK   52  A    between atoms: _118  and  _119
REMARK   53  A    between atoms: _119  and  _120
REMARK   54  A    between atoms: _122  and  _124
REMARK   55  A    between atoms: _124  and  _125
REMARK   56  A    between atoms: _124  and  _127
REMARK   57  A    between atoms: _127  and  _128
REMARK   58  A    between atoms: _131  and  _133
REMARK   59  A    between atoms: _133  and  _134
REMARK   60  A    between atoms: _136  and  _138
REMARK   61  A    between atoms: _138  and  _139
REMARK   62  A    between atoms: _141  and  _143
REMARK   63  A    between atoms: _143  and  _144
REMARK   64  A    between atoms: _143  and  _146
REMARK   65  A    between atoms: _146  and  _147
REMARK   66  A    between atoms: _150  and  _152
REMARK   67  A    between atoms: _152  and  _153
REMARK   68  A    between atoms: _155  and  _157
REMARK   69  A    between atoms: _157  and  _158
REMARK   70  A    between atoms: _160  and  _162
REMARK   71  A    between atoms: _162  and  _163
REMARK   72  A    between atoms: _162  and  _165
REMARK   73  A    between atoms: _165  and  _166
REMARK   74  A    between atoms: _172  and  _174
REMARK   75  A    between atoms: _174  and  _175
REMARK   76  A    between atoms: _174  and  _177
REMARK   77  A    between atoms: _177  and  _178
REMARK   78  A    between atoms: _181  and  _183
REMARK   79  A    between atoms: _183  and  _184
REMARK   80  A    between atoms: _183  and  _186
REMARK   81  A    between atoms: _189  and  _191
REMARK   82  A    between atoms: _191  and  _192
REMARK   83  A    between atoms: _191  and  _194
REMARK   84  A    between atoms: _194  and  _195
REMARK   85  A    between atoms: _199  and  _200
REMARK   86  A    between atoms: _205  and  _207
REMARK   87  A    between atoms: _207  and  _208
REMARK   88  A    between atoms: _207  and  _210
REMARK   89  A    between atoms: _210  and  _211
REMARK   90  A    between atoms: _214  and  _215
REMARK   91  A    between atoms: _220  and  _222
REMARK   92  A    between atoms: _222  and  _223
REMARK   93  A    between atoms: _222  and  _225
REMARK   94  A    between atoms: _228  and  _230
REMARK   95  A    between atoms: _230  and  _231
REMARK   96  A    between atoms: _230  and  _233
REMARK   97  A    between atoms: _233  and  _234
REMARK   98  A    between atoms: _239  and  _241
REMARK   99  A    between atoms: _241  and  _242
REMARK  100  A    between atoms: _241  and  _244
REMARK  101  A    between atoms: _244  and  _245
REMARK  102  A    between atoms: _248  and  _250
REMARK  103  A    between atoms: _250  and  _251
REMARK  104  A    between atoms: _250  and  _253
REMARK  105  A    between atoms: _253  and  _254
REMARK  106  A    between atoms: _257  and  _259
REMARK  107  A    between atoms: _259  and  _260
REMARK  108  A    between atoms: _262  and  _264
REMARK  109  A    between atoms: _264  and  _265
REMARK  110  A    between atoms: _264  and  _267
REMARK  111  A    between atoms: _267  and  _268
REMARK  112  A    between atoms: _268  and  _269
REMARK  113  A    between atoms: _269  and  _270
REMARK  114  A    between atoms: _279  and  _281
REMARK  115  A    between atoms: _281  and  _282
REMARK  116  A    between atoms: _281  and  _284
REMARK  117  A    between atoms: _284  and  _285
REMARK  118  A    between atoms: _290  and  _292
REMARK  119  A    between atoms: _292  and  _293
REMARK  120  A    between atoms: _292  and  _295
REMARK  121  A    between atoms: _295  and  _296
REMARK  122  A    between atoms: _296  and  _297
REMARK  123  A    between atoms: _297  and  _298
REMARK  124  A    between atoms: _307  and  _309
REMARK  125  A    between atoms: _309  and  _310
REMARK  126  A    between atoms: _309  and  _312
REMARK  127  A    between atoms: _312  and  _313
REMARK  128  A    between atoms: _316  and  _318
REMARK  129  A    between atoms: _318  and  _319
REMARK  130  A    between atoms: _318  and  _321
REMARK  131  A    between atoms: _321  and  _322
REMARK  132  A    between atoms: _325  and  _327
REMARK  133  A    between atoms: _327  and  _328
REMARK  134  A    between atoms: _327  and  _330
REMARK  135  A    between atoms: _330  and  _331
REMARK  136  A    between atoms: _334  and  _336
REMARK  137  A    between atoms: _336  and  _337
REMARK  138  A    between atoms: _336  and  _339
REMARK  139  A    between atoms: _339  and  _340
REMARK  140  A    between atoms: _343  and  _345
REMARK  141  A    between atoms: _345  and  _346
REMARK  142  A    between atoms: _348  and  _350
REMARK  143  A    between atoms: _350  and  _351
REMARK  144  A    between atoms: _354  and  _356
REMARK  145  A    between atoms: _356  and  _357
REMARK  146  A    between atoms: _356  and  _359
REMARK  147  A    between atoms: _359  and  _360
REMARK  148  A    between atoms: _363  and  _365
REMARK  149  A    between atoms: _365  and  _366
REMARK  150  A    between atoms: _365  and  _368
REMARK  151  A    between atoms: _368  and  _369
REMARK  152  A    between atoms: _372  and  _374
REMARK  153  A    between atoms: _374  and  _375
REMARK  154  A    between atoms: _374  and  _377
REMARK  155  A    between atoms: _377  and  _378
REMARK  156  A    between atoms: _381  and  _383
REMARK  157  A    between atoms: _383  and  _384
REMARK  158  A    between atoms: _383  and  _386
REMARK  159  A    between atoms: _389  and  _391
REMARK  160  A    between atoms: _391  and  _392
REMARK  161  A    between atoms: _391  and  _394
REMARK  162  A    between atoms: _394  and  _395
REMARK  163  A    between atoms: _398  and  _400
REMARK  164  A    between atoms: _400  and  _401
REMARK  165  A    between atoms: _400  and  _403
REMARK  166  A    between atoms: _403  and  _404
REMARK  167  A    between atoms: _404  and  _405
REMARK  168  A    between atoms: _407  and  _409
REMARK  169  A    between atoms: _409  and  _410
REMARK  170  A    between atoms: _409  and  _412
REMARK  171  A    between atoms: _412  and  _413
REMARK  172  A    between atoms: _416  and  _418
REMARK  173  A    between atoms: _418  and  _419
REMARK  174  A    between atoms: _421  and  _423
REMARK  175  A    between atoms: _423  and  _424
REMARK  176  A    between atoms: _426  and  _428
REMARK  177  A    between atoms: _428  and  _429
REMARK  178  A    between atoms: _428  and  _431
REMARK  179  A    between atoms: _431  and  _432
REMARK  180  A    between atoms: _435  and  _437
REMARK  181  A    between atoms: _437  and  _438
REMARK  182  A    between atoms: _440  and  _442
REMARK  183  A    between atoms: _442  and  _443
REMARK  184  A    between atoms: _445  and  _447
REMARK  185  A    between atoms: _447  and  _448
REMARK  186  A    between atoms: _447  and  _450
REMARK  187  A    between atoms: _450  and  _451
REMARK  188  A    between atoms: _457  and  _459
REMARK  189  A    between atoms: _459  and  _460
REMARK  190  A    between atoms: _459  and  _462
REMARK  191  A    between atoms: _462  and  _463
REMARK  192  A    between atoms: _466  and  _468
REMARK  193  A    between atoms: _468  and  _469
REMARK  194  A    between atoms: _468  and  _471
REMARK  195  A    between atoms: _474  and  _476
REMARK  196  A    between atoms: _476  and  _477
REMARK  197  A    between atoms: _476  and  _479
REMARK  198  A    between atoms: _479  and  _480
REMARK  199  A    between atoms: _484  and  _485
REMARK  200  A    between atoms: _490  and  _492
REMARK  201  A    between atoms: _492  and  _493
REMARK  202  A    between atoms: _492  and  _495
REMARK  203  A    between atoms: _495  and  _496
REMARK  204  A    between atoms: _499  and  _500
REMARK  205  A    between atoms: _505  and  _507
REMARK  206  A    between atoms: _507  and  _508
REMARK  207  A    between atoms: _507  and  _510
REMARK  208  A    between atoms: _513  and  _515
REMARK  209  A    between atoms: _515  and  _516
REMARK  210  A    between atoms: _515  and  _518
REMARK  211  A    between atoms: _518  and  _519
REMARK  212  A    between atoms: _524  and  _526
REMARK  213  A    between atoms: _526  and  _527
REMARK  214  A    between atoms: _526  and  _529
REMARK  215  A    between atoms: _529  and  _530
REMARK  216  A    between atoms: _533  and  _535
REMARK  217  A    between atoms: _535  and  _536
REMARK  218  A    between atoms: _535  and  _538
REMARK  219  A    between atoms: _538  and  _539
REMARK  220  A    between atoms: _542  and  _544
REMARK  221  A    between atoms: _544  and  _545
REMARK  222  A    between atoms: _547  and  _549
REMARK  223  A    between atoms: _549  and  _550
REMARK  224  A    between atoms: _549  and  _552
REMARK  225  A    between atoms: _552  and  _553
REMARK  226  A    between atoms: _553  and  _554
REMARK  227  A    between atoms: _554  and  _555
REMARK  228  A    between atoms: _564  and  _566
REMARK  229  A    between atoms: _566  and  _567
REMARK  230  A    between atoms: _566  and  _569
REMARK  231  A    between atoms: _569  and  _570
REMARK                            x       y       z     vdW  Elec       q    Type
REMARK                         _______ _______ _______ _____ _____    ______ ____
ROOT
ATOM      1  NE  ARG A   1      18.781   8.685  19.428  0.00  0.00    -0.265 N 
ATOM      2  CZ  ARG A   1      18.661   8.828  20.746  0.00  0.00    +0.342 C 
ATOM      3  NH2 ARG A   1      19.579   8.307  21.550  0.00  0.00    -0.292 N 
ATOM      4 HH21 ARG A   1      19.490   8.416  22.580  0.00  0.00    +0.255 HD
ATOM      5 HH22 ARG A   1      20.388   7.790  21.150  0.00  0.00    +0.255 HD
ATOM      6  NH1 ARG A   1      17.627   9.481  21.272  0.00  0.00    -0.292 N 
ATOM      7 HH11 ARG A   1      17.548   9.584  22.304  0.00  0.00    +0.255 HD
ATOM      8 HH12 ARG A   1      16.899   9.888  20.651  0.00  0.00    +0.255 HD
ATOM      9  HE  ARG A   1      19.603   8.153  19.078  0.00  0.00    +0.259 HD
ENDROOT
BRANCH   1  10
ATOM     10  CD  ARG A   1      17.852   9.214  18.434  0.00  0.00    +0.174 C 
BRANCH  10  11
ATOM     11  CG  ARG A   1      18.657   9.805  17.287  0.00  0.00    +0.045 C 
BRANCH  11  12
ATOM     12  CB  ARG A   1      17.775  10.333  16.180  0.00  0.00    +0.029 C 
BRANCH  12  13
ATOM     13  CA  ARG A   1      18.535  10.867  14.964  0.00  0.00    +0.133 C 
BRANCH  13  14
ATOM     14  N   ARG A   1      19.268  12.085  15.311  0.00  0.00    -0.239 NA
ATOM     15  H   ARG A   1      19.345  12.359  16.311  0.00  0.00    +0.142 HD
ENDBRANCH  13  14
BRANCH  13  16
ATOM     16  C   ARG A   1      17.540  11.218  13.875  0.00  0.00    +0.224 C 
ATOM     17  O   ARG A   1      16.827  12.207  14.001  0.00  0.00    -0.287 OA
ENDBRANCH  13  16
ENDBRANCH  12  13
ENDBRANCH  11  12
ENDBRANCH  10  11
ENDBRANCH   1  10
TORSDOF 6
REMARK  Name = ../refined-set-2016/2fgu/2fgu_pocket.pdb
REMARK  231 active torsions:
REMARK  status: ('A' for Active; 'I' for Inactive)
REMARK    1  A    between atoms: _1  and  _3
REMARK    2  A    between atoms: _3  and  _4
REMARK    3  A    between atoms: _3  and  _6
REMARK    4  A    between atoms: _6  and  _7
REMARK    5  A    between atoms: _7  and  _8
REMARK    6  A    between atoms: _8  and  _9
REMARK    7  A    between atoms: _18  and  _20
REMARK    8  A    between atoms: _20  and  _21
REMARK    9  A    between atoms: _20  and  _23
REMARK   10  A    between atoms: _23  and  _24
REMARK   11  A    between atoms: _27  and  _29
REMARK   12  A    between atoms: _29  and  _30
REMARK   13  A    between atoms: _29  and  _32
REMARK   14  A    between atoms: _32  and  _33
REMARK   15  A    between atoms: _36  and  _38
REMARK   16  A    between atoms: _38  and  _39
REMARK   17  A    between atoms: _38  and  _41
REMARK   18  A    between atoms: _41  and  _42
REMARK   19  A    between atoms: _45  and  _47
REMARK   20  A    between atoms: _47  and  _48
REMARK   21  A    between atoms: _47  and  _50
REMARK   22  A    between atoms: _50  and  _51
REMARK   23  A    between atoms: _54  and  _56
REMARK   24  A    between atoms: _56  and  _57
REMARK   25  A    between atoms: _59  and  _61
REMARK   26  A    between atoms: _61  and  _62
REMARK   27  A    between atoms: _65  and  _67
REMARK   28  A    between atoms: _67  and  _68
REMARK   29  A    between atoms: _67  and  _70
REMARK   30  A    between atoms: _70  and  _71
REMARK   31  A    between atoms: _74  and  _76
REMARK   32  A    between atoms: _76  and  _77
REMARK   33  A    between atoms: _76  and  _79
REMARK   34  A    between atoms: _79  and  _80
REMARK   35  A    between atoms: _83  and  _85
REMARK   36  A    between atoms: _85  and  _86
REMARK   37  A    between atoms: _85  and  _88
REMARK   38  A    between atoms: _88  and  _89
REMARK   39  A    between atoms: _92  and  _94
REMARK   40  A    between atoms: _94  and  _95
REMARK   41  A    between atoms: _94  and  _97
REMARK   42  A    between atoms: _100  and  _102
REMARK   43  A    between atoms: _102  and  _103
REMARK   44  A    between atoms: _102  and  _105
REMARK   45  A    between atoms: _105  and  _106
REMARK   46  A    between atoms: _106  and  _107
REMARK   47  A    between atoms: _107  and  _108
REMARK   48  A    between atoms: _108  and  _109
REMARK   49  A    between atoms: _113  and  _115
REMARK   50  A    between atoms: _115  and  _116
REMARK   51  A    between atoms: _115  and  _118
REMARK   52  A    between atoms: _118  and  _119
REMARK   53  A    between atoms: _119  and  _120
REMARK   54  A    between atoms: _122  and  _124
REMARK   55  A    between atoms: _124  and  _125
REMARK   56  A    between atoms: _124  and  _127
REMARK   57  A    between atoms: _127  and  _128
REMARK   58  A    between atoms: _131  and  _133
REMARK   59  A    between atoms: _133  and  _134
REMARK   60  A    between atoms: _136  and  _138
REMARK   61  A    between atoms: _138  and  _139
REMARK   62  A    between atoms: _141  and  _143
REMARK   63  A    between atoms: _143  and  _144
REMARK   64  A    between atoms: _143  and  _146
REMARK   65  A    between atoms: _146  and  _147
REMARK   66  A    between atoms: _150  and  _152
REMARK   67  A    between atoms: _152  and  _153
REMARK   68  A    between atoms: _155  and  _157
REMARK   69  A    between atoms: _157  and  _158
REMARK   70  A    between atoms: _160  and  _162
REMARK   71  A    between atoms: _162  and  _163
REMARK   72  A    between atoms: _162  and  _165
REMARK   73  A    between atoms: _165  and  _166
REMARK   74  A    between atoms: _172  and  _174
REMARK   75  A    between atoms: _174  and  _175
REMARK   76  A    between atoms: _174  and  _177
REMARK   77  A    between atoms: _177  and  _178
REMARK   78  A    between atoms: _181  and  _183
REMARK   79  A    between atoms: _183  and  _184
REMARK   80  A    between atoms: _183  and  _186
REMARK   81  A    between atoms: _189  and  _191
REMARK   82  A    between atoms: _191  and  _192
REMARK   83  A    between atoms: _191  and  _194
REMARK   84  A    between atoms: _194  and  _195
REMARK   85  A    between atoms: _199  and  _200
REMARK   86  A    between atoms: _205  and  _207
REMARK   87  A    between atoms: _207  and  _208
REMARK   88  A    between atoms: _207  and  _210
REMARK   89  A    between atoms: _210  and  _211
REMARK   90  A    between atoms: _214  and  _215
REMARK   91  A    between atoms: _220  and  _222
REMARK   92  A    between atoms: _222  and  _223
REMARK   93  A    between atoms: _222  and  _225
REMARK   94  A    between atoms: _228  and  _230
REMARK   95  A    between atoms: _230  and  _231
REMARK   96  A    between atoms: _230  and  _233
REMARK   97  A    between atoms: _233  and  _234
REMARK   98  A    between atoms: _239  and  _241
REMARK   99  A    between atoms: _241  and  _242
REMARK  100  A    between atoms: _241  and  _244
REMARK  101  A    between atoms: _244  and  _245
REMARK  102  A    between atoms: _248  and  _250
REMARK  103  A    between atoms: _250  and  _251
REMARK  104  A    between atoms: _250  and  _253
REMARK  105  A    between atoms: _253  and  _254
REMARK  106  A    between atoms: _257  and  _259
REMARK  107  A    between atoms: _259  and  _260
REMARK  108  A    between atoms: _262  and  _264
REMARK  109  A    between atoms: _264  and  _265
REMARK  110  A    between atoms: _264  and  _267
REMARK  111  A    between atoms: _267  and  _268
REMARK  112  A    between atoms: _268  and  _269
REMARK  113  A    between atoms: _269  and  _270
REMARK  114  A    between atoms: _279  and  _281
REMARK  115  A    between atoms: _281  and  _282
REMARK  116  A    between atoms: _281  and  _284
REMARK  117  A    between atoms: _284  and  _285
REMARK  118  A    between atoms: _290  and  _292
REMARK  119  A    between atoms: _292  and  _293
REMARK  120  A    between atoms: _292  and  _295
REMARK  121  A    between atoms: _295  and  _296
REMARK  122  A    between atoms: _296  and  _297
REMARK  123  A    between atoms: _297  and  _298
REMARK  124  A    between atoms: _307  and  _309
REMARK  125  A    between atoms: _309  and  _310
REMARK  126  A    between atoms: _309  and  _312
REMARK  127  A    between atoms: _312  and  _313
REMARK  128  A    between atoms: _316  and  _318
REMARK  129  A    between atoms: _318  and  _319
REMARK  130  A    between atoms: _318  and  _321
REMARK  131  A    between atoms: _321  and  _322
REMARK  132  A    between atoms: _325  and  _327
REMARK  133  A    between atoms: _327  and  _328
REMARK  134  A    between atoms: _327  and  _330
REMARK  135  A    between atoms: _330  and  _331
REMARK  136  A    between atoms: _334  and  _336
REMARK  137  A    between atoms: _336  and  _337
REMARK  138  A    between atoms: _336  and  _339
REMARK  139  A    between atoms: _339  and  _340
REMARK  140  A    between atoms: _343  and  _345
REMARK  141  A    between atoms: _345  and  _346
REMARK  142  A    between atoms: _348  and  _350
REMARK  143  A    between atoms: _350  and  _351
REMARK  144  A    between atoms: _354  and  _356
REMARK  145  A    between atoms: _356  and  _357
REMARK  146  A    between atoms: _356  and  _359
REMARK  147  A    between atoms: _359  and  _360
REMARK  148  A    between atoms: _363  and  _365
REMARK  149  A    between atoms: _365  and  _366
REMARK  150  A    between atoms: _365  and  _368
REMARK  151  A    between atoms: _368  and  _369
REMARK  152  A    between atoms: _372  and  _374
REMARK  153  A    between atoms: _374  and  _375
REMARK  154  A    between atoms: _374  and  _377
REMARK  155  A    between atoms: _377  and  _378
REMARK  156  A    between atoms: _381  and  _383
REMARK  157  A    between atoms: _383  and  _384
REMARK  158  A    between atoms: _383  and  _386
REMARK  159  A    between atoms: _389  and  _391
REMARK  160  A    between atoms: _391  and  _392
REMARK  161  A    between atoms: _391  and  _394
REMARK  162  A    between atoms: _394  and  _395
REMARK  163  A    between atoms: _398  and  _400
REMARK  164  A    between atoms: _400  and  _401
REMARK  165  A    between atoms: _400  and  _403
REMARK  166  A    between atoms: _403  and  _404
REMARK  167  A    between atoms: _404  and  _405
REMARK  168  A    between atoms: _407  and  _409
REMARK  169  A    between atoms: _409  and  _410
REMARK  170  A    between atoms: _409  and  _412
REMARK  171  A    between atoms: _412  and  _413
REMARK  172  A    between atoms: _416  and  _418
REMARK  173  A    between atoms: _418  and  _419
REMARK  174  A    between atoms: _421  and  _423
REMARK  175  A    between atoms: _423  and  _424
REMARK  176  A    between atoms: _426  and  _428
REMARK  177  A    between atoms: _428  and  _429
REMARK  178  A    between atoms: _428  and  _431
REMARK  179  A    between atoms: _431  and  _432
REMARK  180  A    between atoms: _435  and  _437
REMARK  181  A    between atoms: _437  and  _438
REMARK  182  A    between atoms: _440  and  _442
REMARK  183  A    between atoms: _442  and  _443
REMARK  184  A    between atoms: _445  and  _447
REMARK  185  A    between atoms: _447  and  _448
REMARK  186  A    between atoms: _447  and  _450
REMARK  187  A    between atoms: _450  and  _451
REMARK  188  A    between atoms: _457  and  _459
REMARK  189  A    between atoms: _459  and  _460
REMARK  190  A    between atoms: _459  and  _462
REMARK  191  A    between atoms: _462  and  _463
REMARK  192  A    between atoms: _466  and  _468
REMARK  193  A    between atoms: _468  and  _469
REMARK  194  A    between atoms: _468  and  _471
REMARK  195  A    between atoms: _474  and  _476
REMARK  196  A    between atoms: _476  and  _477
REMARK  197  A    between atoms: _476  and  _479
REMARK  198  A    between atoms: _479  and  _480
REMARK  199  A    between atoms: _484  and  _485
REMARK  200  A    between atoms: _490  and  _492
REMARK  201  A    between atoms: _492  and  _493
REMARK  202  A    between atoms: _492  and  _495
REMARK  203  A    between atoms: _495  and  _496
REMARK  204  A    between atoms: _499  and  _500
REMARK  205  A    between atoms: _505  and  _507
REMARK  206  A    between atoms: _507  and  _508
REMARK  207  A    between atoms: _507  and  _510
REMARK  208  A    between atoms: _513  and  _515
REMARK  209  A    between atoms: _515  and  _516
REMARK  210  A    between atoms: _515  and  _518
REMARK  211  A    between atoms: _518  and  _519
REMARK  212  A    between atoms: _524  and  _526
REMARK  213  A    between atoms: _526  and  _527
REMARK  214  A    between atoms: _526  and  _529
REMARK  215  A    between atoms: _529  and  _530
REMARK  216  A    between atoms: _533  and  _535
REMARK  217  A    between atoms: _535  and  _536
REMARK  218  A    between atoms: _535  and  _538
REMARK  219  A    between atoms: _538  and  _539
REMARK  220  A    between atoms: _542  and  _544
REMARK  221  A    between atoms: _544  and  _545
REMARK  222  A    between atoms: _547  and  _549
REMARK  223  A    between atoms: _549  and  _550
REMARK  224  A    between atoms: _549  and  _552
REMARK  225  A    between atoms: _552  and  _553
REMARK  226  A    between atoms: _553  and  _554
REMARK  227  A    between atoms: _554  and  _555
REMARK  228  A    between atoms: _564  and  _566
REMARK  229  A    between atoms: _566  and  _567
REMARK  230  A    between atoms: _566  and  _569
REMARK  231  A    between atoms: _569  and  _570
REMARK                            x       y       z     vdW  Elec       q    Type
REMARK                         _______ _______ _______ _____ _____    ______ ____
ROOT
ATOM      1  C   GLY A   5      19.776  -1.920  10.521  0.00  0.00    +0.243 C 
ATOM      2  O   GLY A   5      20.148  -2.969  11.069  0.00  0.00    -0.273 OA
ATOM      3  N   ALA A   6      18.492  -1.649  10.332  0.00  0.00    -0.297 N 
ATOM      4  H   ALA A   6      18.218  -0.751   9.885  0.00  0.00    +0.150 HD
ENDROOT
BRANCH   3   5
ATOM      5  CA  ALA A   6      17.445  -2.605  10.748  0.00  0.00    +0.149 C 
ATOM      6  CB  ALA A   6      16.336  -1.865  11.481  0.00  0.00    +0.031 C 
BRANCH   5   7
ATOM      7  C   ALA A   6      16.867  -3.366   9.550  0.00  0.00    +0.241 C 
ATOM      8  N   ASP A   7      16.898  -4.702   9.584  0.00  0.00    -0.297 N 
ATOM      9  H   ASP A   7      17.384  -5.170  10.375  0.00  0.00    +0.150 HD
ATOM     10  O   ALA A   6      16.420  -2.728   8.594  0.00  0.00    -0.273 OA
BRANCH   8  11
ATOM     11  CA  ASP A   7      16.271  -5.539   8.545  0.00  0.00    +0.160 C 
BRANCH  11  12
ATOM     12  C   ASP A   7      14.755  -5.350   8.583  0.00  0.00    +0.241 C 
ATOM     13  N   ASP A   8      14.229  -5.196   9.801  0.00  0.00    -0.297 N 
ATOM     14  H   ASP A   8      14.890  -5.079  10.596  0.00  0.00    +0.150 HD
ATOM     15  O   ASP A   7      14.102  -5.340   7.538  0.00  0.00    -0.273 OA
BRANCH  13  16
ATOM     16  CA  ASP A   8      12.798  -5.178  10.108  0.00  0.00    +0.160 C 
BRANCH  16  17
ATOM     17  C   ASP A   8      12.304  -3.829  10.595  0.00  0.00    +0.241 C 
ATOM     18  O   ASP A   8      13.077  -2.940  10.975  0.00  0.00    -0.273 OA
ATOM     19  N   THR A   9      10.985  -3.695  10.548  0.00  0.00    -0.295 N 
ATOM     20  H   THR A   9      10.422  -4.446  10.100  0.00  0.00    +0.150 HD
BRANCH  19  21
ATOM     21  CA  THR A   9      10.303  -2.550  11.093  0.00  0.00    +0.176 C 
BRANCH  21  22
ATOM     22  C   THR A   9       9.719  -2.951  12.438  0.00  0.00    +0.243 C 
ATOM     23  N   VAL A  10      10.160  -2.252  13.479  0.00  0.00    -0.298 N 
ATOM     24  H   VAL A  10      10.777  -1.430  13.320  0.00  0.00    +0.150 HD
ATOM     25  O   THR A   9       8.922  -3.890  12.546  0.00  0.00    -0.273 OA
BRANCH  23  26
ATOM     26  CA  VAL A  10       9.795  -2.617  14.824  0.00  0.00    +0.137 C 
BRANCH  26  27
ATOM     27  CB  VAL A  10      10.988  -3.098  15.646  0.00  0.00    +0.026 C 
ATOM     28  CG2 VAL A  10      10.510  -3.650  16.988  0.00  0.00    +0.002 C 
ATOM     29  CG1 VAL A  10      11.773  -4.155  14.861  0.00  0.00    +0.002 C 
ENDBRANCH  26  27
BRANCH  26  30
ATOM     30  C   VAL A  10       9.126  -1.445  15.512  0.00  0.00    +0.227 C 
ATOM     31  O   VAL A  10       9.674  -0.340  15.563  0.00  0.00    -0.286 OA
ENDBRANCH  26  30
ENDBRANCH  23  26
ENDBRANCH  21  22
BRANCH  21  32
ATOM     32  CB  THR A   9       9.245  -2.034  10.102  0.00  0.00    +0.137 C 
ATOM     33  CG2 THR A   9       8.383  -0.971  10.752  0.00  0.00    +0.034 C 
BRANCH  32  34
ATOM     34  OG1 THR A   9       9.934  -1.474   8.978  0.00  0.00    -0.382 OA
ATOM     35  HG1 THR A   9      10.492  -2.173   8.553  0.00  0.00    +0.210 HD
ENDBRANCH  32  34
ENDBRANCH  21  32
ENDBRANCH  19  21
ENDBRANCH  16  17
BRANCH  16  36
ATOM     36  CB  ASP A   8      12.472  -6.233  11.173  0.00  0.00    +0.143 C 
BRANCH  36  37
ATOM     37  CG  ASP A   8      12.984  -7.622  10.785  0.00  0.00    +0.367 C 
ATOM     38  OD2 ASP A   8      13.698  -8.240  11.595  0.00  0.00    -0.246 OA
ATOM     39  OD1 ASP A   8      12.717  -8.082   9.657  0.00  0.00    -0.246 OA
ENDBRANCH  36  37
ENDBRANCH  16  36
ENDBRANCH  13  16
ENDBRANCH  11  12
BRANCH  11  40
ATOM     40  CB  ASP A   7      16.519  -7.024   8.761  0.00  0.00    +0.143 C 
BRANCH  40  41
ATOM     41  CG  ASP A   7      17.978  -7.406   8.681  0.00  0.00    +0.367 C 
ATOM     42  OD2 ASP A   7      18.302  -8.529   9.102  0.00  0.00    -0.246 OA
ATOM     43  OD1 ASP A   7      18.788  -6.614   8.184  0.00  0.00    -0.246 OA
ENDBRANCH  40  41
ENDBRANCH  11  40
ENDBRANCH   8  11
ENDBRANCH   5   7
ENDBRANCH   3   5
BRANCH   1  44
ATOM     44  CA  GLY A   5      20.796  -0.893  10.020  0.00  0.00    +0.176 C 
BRANCH  44  46
ATOM     45  C   THR A   4      19.949   0.290   8.056  0.00  0.00    +0.243 C 
ATOM     46  N   GLY A   5      20.272   0.290   9.349  0.00  0.00    -0.295 N 
ATOM     47  H   GLY A   5      20.146   1.164   9.898  0.00  0.00    +0.150 HD
ATOM     48  O   THR A   4      20.202  -0.641   7.289  0.00  0.00    -0.273 OA
BRANCH  45  49
ATOM     49  CA  THR A   4      19.262   1.525   7.505  0.00  0.00    +0.176 C 
BRANCH  49  52
ATOM     50  C   ASP A   3      17.558   1.905   9.225  0.00  0.00    +0.241 C 
ATOM     51  O   ASP A   3      17.014   0.794   9.053  0.00  0.00    -0.273 OA
ATOM     52  N   THR A   4      18.601   2.346   8.513  0.00  0.00    -0.295 N 
ATOM     53  H   THR A   4      18.953   3.309   8.684  0.00  0.00    +0.150 HD
BRANCH  50  54
ATOM     54  CA  ASP A   3      17.062   2.878  10.289  0.00  0.00    +0.160 C 
BRANCH  54  57
ATOM     55  C   LEU A   2      16.068   5.085   9.893  0.00  0.00    +0.241 C 
ATOM     56  O   LEU A   2      17.098   5.724  10.124  0.00  0.00    -0.273 OA
ATOM     57  N   ASP A   3      16.029   3.760   9.761  0.00  0.00    -0.297 N 
ATOM     58  H   ASP A   3      15.224   3.335   9.258  0.00  0.00    +0.150 HD
BRANCH  55  59
ATOM     59  CA  LEU A   2      14.729   5.819   9.714  0.00  0.00    +0.149 C 
BRANCH  59  62
ATOM     60  C   LEU A   1      13.839   5.682  11.936  0.00  0.00    +0.238 C 
ATOM     61  O   LEU A   1      13.556   4.490  11.744  0.00  0.00    -0.274 OA
ATOM     62  N   LEU A   2      14.351   6.443  10.978  0.00  0.00    -0.297 N 
ATOM     63  H   LEU A   2      14.481   7.464  11.125  0.00  0.00    +0.150 HD
BRANCH  60  64
ATOM     64  CA  LEU A   1      13.608   6.310  13.301  0.00  0.00    +0.145 C 
BRANCH  64  65
ATOM     65  N   LEU A   1      12.196   6.158  13.617  0.00  0.00    -0.238 NA
ATOM     66  H   LEU A   1      11.898   5.269  14.067  0.00  0.00    +0.142 HD
ENDBRANCH  64  65
BRANCH  64  67
ATOM     67  CB  LEU A   1      14.404   5.481  14.319  0.00  0.00    +0.026 C 
BRANCH  67  68
ATOM     68  CG  LEU A   1      15.736   5.870  14.943  0.00  0.00    +0.002 C 
ATOM     69  CD2 LEU A   1      16.576   4.619  15.215  0.00  0.00    +0.000 C 
ATOM     70  CD1 LEU A   1      16.480   6.948  14.218  0.00  0.00    +0.000 C 
ENDBRANCH  67  68
ENDBRANCH  64  67
ENDBRANCH  60  64
ENDBRANCH  59  62
BRANCH  59  71
ATOM     71  CB  LEU A   2      14.817   6.852   8.592  0.00  0.00    +0.029 C 
BRANCH  71  72
ATOM     72  CG  LEU A   2      13.537   7.678   8.407  0.00  0.00    +0.002 C 
ATOM     73  CD2 LEU A   2      12.340   6.806   8.051  0.00  0.00    +0.000 C 
ATOM     74  CD1 LEU A   2      13.755   8.709   7.332  0.00  0.00    +0.000 C 
ENDBRANCH  71  72
ENDBRANCH  59  71
ENDBRANCH  55  59
ENDBRANCH  54  57
BRANCH  54  75
ATOM     75  CB  ASP A   3      16.510   2.112  11.480  0.00  0.00    +0.143 C 
BRANCH  75  76
ATOM     76  CG  ASP A   3      17.581   1.361  12.269  0.00  0.00    +0.367 C 
ATOM     77  OD2 ASP A   3      17.204   0.887  13.350  0.00  0.00    -0.246 OA
ATOM     78  OD1 ASP A   3      18.764   1.246  11.866  0.00  0.00    -0.246 OA
ENDBRANCH  75  76
ENDBRANCH  54  75
ENDBRANCH  50  54
ENDBRANCH  49  52
BRANCH  49  79
ATOM     79  CB  THR A   4      20.309   2.315   6.694  0.00  0.00    +0.137 C 
ATOM     80  CG2 THR A   4      19.624   3.450   5.974  0.00  0.00    +0.034 C 
BRANCH  79  81
ATOM     81  OG1 THR A   4      21.327   2.829   7.558  0.00  0.00    -0.382 OA
ATOM     82  HG1 THR A   4      21.777   2.078   8.020  0.00  0.00    +0.210 HD
ENDBRANCH  79  81
ENDBRANCH  49  79
ENDBRANCH  45  49
ENDBRANCH  44  46
ENDBRANCH   1  44
TORSDOF 35
REMARK  Name = ../refined-set-2016/2fgu/2fgu_pocket.pdb
REMARK  231 active torsions:
REMARK  status: ('A' for Active; 'I' for Inactive)
REMARK    1  A    between atoms: _1  and  _3
REMARK    2  A    between atoms: _3  and  _4
REMARK    3  A    between atoms: _3  and  _6
REMARK    4  A    between atoms: _6  and  _7
REMARK    5  A    between atoms: _7  and  _8
REMARK    6  A    between atoms: _8  and  _9
REMARK    7  A    between atoms: _18  and  _20
REMARK    8  A    between atoms: _20  and  _21
REMARK    9  A    between atoms: _20  and  _23
REMARK   10  A    between atoms: _23  and  _24
REMARK   11  A    between atoms: _27  and  _29
REMARK   12  A    between atoms: _29  and  _30
REMARK   13  A    between atoms: _29  and  _32
REMARK   14  A    between atoms: _32  and  _33
REMARK   15  A    between atoms: _36  and  _38
REMARK   16  A    between atoms: _38  and  _39
REMARK   17  A    between atoms: _38  and  _41
REMARK   18  A    between atoms: _41  and  _42
REMARK   19  A    between atoms: _45  and  _47
REMARK   20  A    between atoms: _47  and  _48
REMARK   21  A    between atoms: _47  and  _50
REMARK   22  A    between atoms: _50  and  _51
REMARK   23  A    between atoms: _54  and  _56
REMARK   24  A    between atoms: _56  and  _57
REMARK   25  A    between atoms: _59  and  _61
REMARK   26  A    between atoms: _61  and  _62
REMARK   27  A    between atoms: _65  and  _67
REMARK   28  A    between atoms: _67  and  _68
REMARK   29  A    between atoms: _67  and  _70
REMARK   30  A    between atoms: _70  and  _71
REMARK   31  A    between atoms: _74  and  _76
REMARK   32  A    between atoms: _76  and  _77
REMARK   33  A    between atoms: _76  and  _79
REMARK   34  A    between atoms: _79  and  _80
REMARK   35  A    between atoms: _83  and  _85
REMARK   36  A    between atoms: _85  and  _86
REMARK   37  A    between atoms: _85  and  _88
REMARK   38  A    between atoms: _88  and  _89
REMARK   39  A    between atoms: _92  and  _94
REMARK   40  A    between atoms: _94  and  _95
REMARK   41  A    between atoms: _94  and  _97
REMARK   42  A    between atoms: _100  and  _102
REMARK   43  A    between atoms: _102  and  _103
REMARK   44  A    between atoms: _102  and  _105
REMARK   45  A    between atoms: _105  and  _106
REMARK   46  A    between atoms: _106  and  _107
REMARK   47  A    between atoms: _107  and  _108
REMARK   48  A    between atoms: _108  and  _109
REMARK   49  A    between atoms: _113  and  _115
REMARK   50  A    between atoms: _115  and  _116
REMARK   51  A    between atoms: _115  and  _118
REMARK   52  A    between atoms: _118  and  _119
REMARK   53  A    between atoms: _119  and  _120
REMARK   54  A    between atoms: _122  and  _124
REMARK   55  A    between atoms: _124  and  _125
REMARK   56  A    between atoms: _124  and  _127
REMARK   57  A    between atoms: _127  and  _128
REMARK   58  A    between atoms: _131  and  _133
REMARK   59  A    between atoms: _133  and  _134
REMARK   60  A    between atoms: _136  and  _138
REMARK   61  A    between atoms: _138  and  _139
REMARK   62  A    between atoms: _141  and  _143
REMARK   63  A    between atoms: _143  and  _144
REMARK   64  A    between atoms: _143  and  _146
REMARK   65  A    between atoms: _146  and  _147
REMARK   66  A    between atoms: _150  and  _152
REMARK   67  A    between atoms: _152  and  _153
REMARK   68  A    between atoms: _155  and  _157
REMARK   69  A    between atoms: _157  and  _158
REMARK   70  A    between atoms: _160  and  _162
REMARK   71  A    between atoms: _162  and  _163
REMARK   72  A    between atoms: _162  and  _165
REMARK   73  A    between atoms: _165  and  _166
REMARK   74  A    between atoms: _172  and  _174
REMARK   75  A    between atoms: _174  and  _175
REMARK   76  A    between atoms: _174  and  _177
REMARK   77  A    between atoms: _177  and  _178
REMARK   78  A    between atoms: _181  and  _183
REMARK   79  A    between atoms: _183  and  _184
REMARK   80  A    between atoms: _183  and  _186
REMARK   81  A    between atoms: _189  and  _191
REMARK   82  A    between atoms: _191  and  _192
REMARK   83  A    between atoms: _191  and  _194
REMARK   84  A    between atoms: _194  and  _195
REMARK   85  A    between atoms: _199  and  _200
REMARK   86  A    between atoms: _205  and  _207
REMARK   87  A    between atoms: _207  and  _208
REMARK   88  A    between atoms: _207  and  _210
REMARK   89  A    between atoms: _210  and  _211
REMARK   90  A    between atoms: _214  and  _215
REMARK   91  A    between atoms: _220  and  _222
REMARK   92  A    between atoms: _222  and  _223
REMARK   93  A    between atoms: _222  and  _225
REMARK   94  A    between atoms: _228  and  _230
REMARK   95  A    between atoms: _230  and  _231
REMARK   96  A    between atoms: _230  and  _233
REMARK   97  A    between atoms: _233  and  _234
REMARK   98  A    between atoms: _239  and  _241
REMARK   99  A    between atoms: _241  and  _242
REMARK  100  A    between atoms: _241  and  _244
REMARK  101  A    between atoms: _244  and  _245
REMARK  102  A    between atoms: _248  and  _250
REMARK  103  A    between atoms: _250  and  _251
REMARK  104  A    between atoms: _250  and  _253
REMARK  105  A    between atoms: _253  and  _254
REMARK  106  A    between atoms: _257  and  _259
REMARK  107  A    between atoms: _259  and  _260
REMARK  108  A    between atoms: _262  and  _264
REMARK  109  A    between atoms: _264  and  _265
REMARK  110  A    between atoms: _264  and  _267
REMARK  111  A    between atoms: _267  and  _268
REMARK  112  A    between atoms: _268  and  _269
REMARK  113  A    between atoms: _269  and  _270
REMARK  114  A    between atoms: _279  and  _281
REMARK  115  A    between atoms: _281  and  _282
REMARK  116  A    between atoms: _281  and  _284
REMARK  117  A    between atoms: _284  and  _285
REMARK  118  A    between atoms: _290  and  _292
REMARK  119  A    between atoms: _292  and  _293
REMARK  120  A    between atoms: _292  and  _295
REMARK  121  A    between atoms: _295  and  _296
REMARK  122  A    between atoms: _296  and  _297
REMARK  123  A    between atoms: _297  and  _298
REMARK  124  A    between atoms: _307  and  _309
REMARK  125  A    between atoms: _309  and  _310
REMARK  126  A    between atoms: _309  and  _312
REMARK  127  A    between atoms: _312  and  _313
REMARK  128  A    between atoms: _316  and  _318
REMARK  129  A    between atoms: _318  and  _319
REMARK  130  A    between atoms: _318  and  _321
REMARK  131  A    between atoms: _321  and  _322
REMARK  132  A    between atoms: _325  and  _327
REMARK  133  A    between atoms: _327  and  _328
REMARK  134  A    between atoms: _327  and  _330
REMARK  135  A    between atoms: _330  and  _331
REMARK  136  A    between atoms: _334  and  _336
REMARK  137  A    between atoms: _336  and  _337
REMARK  138  A    between atoms: _336  and  _339
REMARK  139  A    between atoms: _339  and  _340
REMARK  140  A    between atoms: _343  and  _345
REMARK  141  A    between atoms: _345  and  _346
REMARK  142  A    between atoms: _348  and  _350
REMARK  143  A    between atoms: _350  and  _351
REMARK  144  A    between atoms: _354  and  _356
REMARK  145  A    between atoms: _356  and  _357
REMARK  146  A    between atoms: _356  and  _359
REMARK  147  A    between atoms: _359  and  _360
REMARK  148  A    between atoms: _363  and  _365
REMARK  149  A    between atoms: _365  and  _366
REMARK  150  A    between atoms: _365  and  _368
REMARK  151  A    between atoms: _368  and  _369
REMARK  152  A    between atoms: _372  and  _374
REMARK  153  A    between atoms: _374  and  _375
REMARK  154  A    between atoms: _374  and  _377
REMARK  155  A    between atoms: _377  and  _378
REMARK  156  A    between atoms: _381  and  _383
REMARK  157  A    between atoms: _383  and  _384
REMARK  158  A    between atoms: _383  and  _386
REMARK  159  A    between atoms: _389  and  _391
REMARK  160  A    between atoms: _391  and  _392
REMARK  161  A    between atoms: _391  and  _394
REMARK  162  A    between atoms: _394  and  _395
REMARK  163  A    between atoms: _398  and  _400
REMARK  164  A    between atoms: _400  and  _401
REMARK  165  A    between atoms: _400  and  _403
REMARK  166  A    between atoms: _403  and  _404
REMARK  167  A    between atoms: _404  and  _405
REMARK  168  A    between atoms: _407  and  _409
REMARK  169  A    between atoms: _409  and  _410
REMARK  170  A    between atoms: _409  and  _412
REMARK  171  A    between atoms: _412  and  _413
REMARK  172  A    between atoms: _416  and  _418
REMARK  173  A    between atoms: _418  and  _419
REMARK  174  A    between atoms: _421  and  _423
REMARK  175  A    between atoms: _423  and  _424
REMARK  176  A    between atoms: _426  and  _428
REMARK  177  A    between atoms: _428  and  _429
REMARK  178  A    between atoms: _428  and  _431
REMARK  179  A    between atoms: _431  and  _432
REMARK  180  A    between atoms: _435  and  _437
REMARK  181  A    between atoms: _437  and  _438
REMARK  182  A    between atoms: _440  and  _442
REMARK  183  A    between atoms: _442  and  _443
REMARK  184  A    between atoms: _445  and  _447
REMARK  185  A    between atoms: _447  and  _448
REMARK  186  A    between atoms: _447  and  _450
REMARK  187  A    between atoms: _450  and  _451
REMARK  188  A    between atoms: _457  and  _459
REMARK  189  A    between atoms: _459  and  _460
REMARK  190  A    between atoms: _459  and  _462
REMARK  191  A    between atoms: _462  and  _463
REMARK  192  A    between atoms: _466  and  _468
REMARK  193  A    between atoms: _468  and  _469
REMARK  194  A    between atoms: _468  and  _471
REMARK  195  A    between atoms: _474  and  _476
REMARK  196  A    between atoms: _476  and  _477
REMARK  197  A    between atoms: _476  and  _479
REMARK  198  A    between atoms: _479  and  _480
REMARK  199  A    between atoms: _484  and  _485
REMARK  200  A    between atoms: _490  and  _492
REMARK  201  A    between atoms: _492  and  _493
REMARK  202  A    between atoms: _492  and  _495
REMARK  203  A    between atoms: _495  and  _496
REMARK  204  A    between atoms: _499  and  _500
REMARK  205  A    between atoms: _505  and  _507
REMARK  206  A    between atoms: _507  and  _508
REMARK  207  A    between atoms: _507  and  _510
REMARK  208  A    between atoms: _513  and  _515
REMARK  209  A    between atoms: _515  and  _516
REMARK  210  A    between atoms: _515  and  _518
REMARK  211  A    between atoms: _518  and  _519
REMARK  212  A    between atoms: _524  and  _526
REMARK  213  A    between atoms: _526  and  _527
REMARK  214  A    between atoms: _526  and  _529
REMARK  215  A    between atoms: _529  and  _530
REMARK  216  A    between atoms: _533  and  _535
REMARK  217  A    between atoms: _535  and  _536
REMARK  218  A    between atoms: _535  and  _538
REMARK  219  A    between atoms: _538  and  _539
REMARK  220  A    between atoms: _542  and  _544
REMARK  221  A    between atoms: _544  and  _545
REMARK  222  A    between atoms: _547  and  _549
REMARK  223  A    between atoms: _549  and  _550
REMARK  224  A    between atoms: _549  and  _552
REMARK  225  A    between atoms: _552  and  _553
REMARK  226  A    between atoms: _553  and  _554
REMARK  227  A    between atoms: _554  and  _555
REMARK  228  A    between atoms: _564  and  _566
REMARK  229  A    between atoms: _566  and  _567
REMARK  230  A    between atoms: _566  and  _569
REMARK  231  A    between atoms: _569  and  _570
REMARK                            x       y       z     vdW  Elec       q    Type
REMARK                         _______ _______ _______ _____ _____    ______ ____
ROOT
ATOM      1  C   GLY A   5      21.208  -6.475  19.177  0.00  0.00    +0.243 C 
ATOM      2  O   GLY A   5      21.465  -7.478  19.823  0.00  0.00    -0.273 OA
ATOM      3  N   ILE A   6      21.740  -5.281  19.441  0.00  0.00    -0.297 N 
ATOM      4  H   ILE A   6      21.461  -4.459  18.868  0.00  0.00    +0.150 HD
ENDROOT
BRANCH   3   5
ATOM      5  CA  ILE A   6      22.696  -5.110  20.509  0.00  0.00    +0.149 C 
BRANCH   5   6
ATOM      6  C   ILE A   6      22.006  -5.381  21.839  0.00  0.00    +0.241 C 
ATOM      7  N   GLY A   7      22.626  -6.183  22.690  0.00  0.00    -0.295 N 
ATOM      8  H   GLY A   7      23.543  -6.602  22.436  0.00  0.00    +0.150 HD
ATOM      9  O   ILE A   6      20.924  -4.882  22.097  0.00  0.00    -0.273 OA
BRANCH   7  10
ATOM     10  CA  GLY A   7      22.026  -6.477  23.978  0.00  0.00    +0.176 C 
BRANCH  10  11
ATOM     11  C   GLY A   7      21.209  -7.751  24.035  0.00  0.00    +0.243 C 
ATOM     12  O   GLY A   7      21.024  -8.288  25.124  0.00  0.00    -0.273 OA
ATOM     13  N   GLY A   8      20.733  -8.248  22.896  0.00  0.00    -0.295 N 
ATOM     14  H   GLY A   8      20.865  -7.715  22.013  0.00  0.00    +0.150 HD
BRANCH  13  15
ATOM     15  CA  GLY A   8      20.027  -9.531  22.862  0.00  0.00    +0.176 C 
BRANCH  15  16
ATOM     16  C   GLY A   8      18.751  -9.520  22.037  0.00  0.00    +0.243 C 
ATOM     17  N   PHE A   9      17.887 -10.486  22.331  0.00  0.00    -0.297 N 
ATOM     18  H   PHE A   9      18.101 -11.121  23.127  0.00  0.00    +0.150 HD
ATOM     19  O   GLY A   8      18.560  -8.666  21.152  0.00  0.00    -0.273 OA
BRANCH  17  20
ATOM     20  CA  PHE A   9      16.652 -10.693  21.584  0.00  0.00    +0.153 C 
BRANCH  20  21
ATOM     21  C   PHE A   9      15.453 -10.198  22.377  0.00  0.00    +0.241 C 
ATOM     22  O   PHE A   9      15.475 -10.219  23.602  0.00  0.00    -0.273 OA
ATOM     23  N   ILE A  10      14.432  -9.725  21.673  0.00  0.00    -0.298 N 
ATOM     24  H   ILE A  10      14.572  -9.509  20.665  0.00  0.00    +0.150 HD
BRANCH  23  25
ATOM     25  CA  ILE A  10      13.126  -9.499  22.264  0.00  0.00    +0.137 C 
BRANCH  25  26
ATOM     26  C   ILE A  10      12.046 -10.261  21.481  0.00  0.00    +0.227 C 
ATOM     27  O   ILE A  10      12.191 -10.531  20.281  0.00  0.00    -0.286 OA
ENDBRANCH  25  26
BRANCH  25  28
ATOM     28  CB  ILE A  10      12.751  -7.989  22.351  0.00  0.00    +0.026 C 
ATOM     29  CG2 ILE A  10      13.755  -7.237  23.218  0.00  0.00    +0.002 C 
BRANCH  28  30
ATOM     30  CG1 ILE A  10      12.693  -7.318  20.979  0.00  0.00    +0.002 C 
ATOM     31  CD1 ILE A  10      12.052  -5.928  21.039  0.00  0.00    +0.000 C 
ENDBRANCH  28  30
ENDBRANCH  25  28
ENDBRANCH  23  25
ENDBRANCH  20  21
BRANCH  20  32
ATOM     32  CB  PHE A   9      16.495 -12.173  21.235  0.00  0.00    +0.055 C 
BRANCH  32  33
ATOM     33  CG  PHE A   9      17.343 -12.590  20.071  0.00  0.00    -0.020 A 
ATOM     34  CD2 PHE A   9      18.697 -12.842  20.245  0.00  0.00    -0.004 A 
ATOM     35  CE2 PHE A   9      19.481 -13.205  19.176  0.00  0.00    -0.000 A 
ATOM     36  CZ  PHE A   9      18.919 -13.321  17.913  0.00  0.00    -0.000 A 
ATOM     37  CE1 PHE A   9      17.561 -13.083  17.731  0.00  0.00    -0.000 A 
ATOM     38  CD1 PHE A   9      16.791 -12.697  18.810  0.00  0.00    -0.004 A 
ENDBRANCH  32  33
ENDBRANCH  20  32
ENDBRANCH  17  20
ENDBRANCH  15  16
ENDBRANCH  13  15
ENDBRANCH  10  11
ENDBRANCH   7  10
ENDBRANCH   5   6
BRANCH   5  39
ATOM     39  CB  ILE A   6      23.270  -3.679  20.534  0.00  0.00    +0.027 C 
ATOM     40  CG2 ILE A   6      23.937  -3.408  21.875  0.00  0.00    +0.002 C 
BRANCH  39  41
ATOM     41  CG1 ILE A   6      24.248  -3.463  19.367  0.00  0.00    +0.002 C 
ATOM     42  CD1 ILE A   6      25.479  -4.363  19.372  0.00  0.00    +0.000 C 
ENDBRANCH  39  41
ENDBRANCH   5  39
ENDBRANCH   3   5
BRANCH   1  43
ATOM     43  CA  GLY A   5      20.240  -6.559  18.017  0.00  0.00    +0.176 C 
BRANCH  43  45
ATOM     44  C   GLY A   4      18.487  -8.129  17.429  0.00  0.00    +0.243 C 
ATOM     45  N   GLY A   5      19.276  -7.596  18.341  0.00  0.00    -0.295 N 
ATOM     46  H   GLY A   5      19.206  -7.929  19.324  0.00  0.00    +0.150 HD
ATOM     47  O   GLY A   4      18.256  -7.619  16.332  0.00  0.00    -0.273 OA
BRANCH  44  48
ATOM     48  CA  GLY A   4      17.856  -9.438  17.856  0.00  0.00    +0.176 C 
BRANCH  48  51
ATOM     49  C   ILE A   3      15.490  -9.906  17.740  0.00  0.00    +0.241 C 
ATOM     50  O   ILE A   3      15.319  -9.704  18.945  0.00  0.00    -0.273 OA
ATOM     51  N   GLY A   4      16.645  -9.707  17.123  0.00  0.00    -0.295 N 
ATOM     52  H   GLY A   4      16.679  -9.746  16.084  0.00  0.00    +0.150 HD
BRANCH  49  53
ATOM     53  CA  ILE A   3      14.373 -10.424  16.844  0.00  0.00    +0.149 C 
BRANCH  53  55
ATOM     54  C   MET A   2      13.047 -12.389  17.310  0.00  0.00    +0.241 C 
ATOM     55  N   ILE A   3      13.407 -11.156  17.652  0.00  0.00    -0.297 N 
ATOM     56  H   ILE A   3      12.998 -10.713  18.499  0.00  0.00    +0.150 HD
ATOM     57  O   MET A   2      13.470 -12.946  16.309  0.00  0.00    -0.273 OA
BRANCH  54  58
ATOM     58  CA  MET A   2      12.098 -13.143  18.231  0.00  0.00    +0.149 C 
BRANCH  58  61
ATOM     59  C   LYS A   1       9.752 -13.333  17.572  0.00  0.00    +0.238 C 
ATOM     60  O   LYS A   1       9.350 -12.636  18.509  0.00  0.00    -0.274 OA
ATOM     61  N   MET A   2      11.025 -13.703  17.428  0.00  0.00    -0.297 N 
ATOM     62  H   MET A   2      11.259 -14.421  16.713  0.00  0.00    +0.150 HD
BRANCH  59  63
ATOM     63  CA  LYS A   1       8.778 -13.870  16.511  0.00  0.00    +0.145 C 
BRANCH  63  64
ATOM     64  N   LYS A   1       7.455 -13.944  17.103  0.00  0.00    -0.238 NA
ATOM     65  H   LYS A   1       7.213 -13.299  17.882  0.00  0.00    +0.142 HD
ENDBRANCH  63  64
BRANCH  63  66
ATOM     66  CB  LYS A   1       8.744 -12.973  15.276  0.00  0.00    +0.026 C 
BRANCH  66  67
ATOM     67  CG  LYS A   1       9.960 -13.059  14.368  0.00  0.00    -0.000 C 
BRANCH  67  68
ATOM     68  CD  LYS A   1       9.916 -12.001  13.278  0.00  0.00    -0.024 C 
BRANCH  68  69
ATOM     69  CE  LYS A   1      11.125 -12.086  12.341  0.00  0.00    -0.086 C 
BRANCH  69  70
ATOM     70  NZ  LYS A   1      10.768 -12.790  11.073  0.00  0.00    +0.380 N 
ATOM     71  HZ1 LYS A   1      10.446 -13.754  11.292  0.00  0.00    -0.089 HD
ATOM     72  HZ2 LYS A   1      10.007 -12.270  10.592  0.00  0.00    -0.089 HD
ATOM     73  HZ3 LYS A   1      11.604 -12.835  10.456  0.00  0.00    -0.089 HD
ENDBRANCH  69  70
ENDBRANCH  68  69
ENDBRANCH  67  68
ENDBRANCH  66  67
ENDBRANCH  63  66
ENDBRANCH  59  63
ENDBRANCH  58  61
BRANCH  58  74
ATOM     74  CB  MET A   2      12.899 -14.258  18.903  0.00  0.00    +0.041 C 
BRANCH  74  75
ATOM     75  CG  MET A   2      12.071 -15.178  19.769  0.00  0.00    +0.060 C 
BRANCH  75  76
ATOM     76  SD  MET A   2      12.229 -14.637  21.451  0.00  0.00    -0.139 S 
ATOM     77  CE  MET A   2      13.858 -15.177  21.947  0.00  0.00    +0.069 C 
ENDBRANCH  75  76
ENDBRANCH  74  75
ENDBRANCH  58  74
ENDBRANCH  54  58
ENDBRANCH  53  55
BRANCH  53  78
ATOM     78  CB  ILE A   3      13.711  -9.252  16.073  0.00  0.00    +0.027 C 
ATOM     79  CG2 ILE A   3      12.847  -9.769  14.949  0.00  0.00    +0.002 C 
BRANCH  78  80
ATOM     80  CG1 ILE A   3      12.856  -8.429  17.035  0.00  0.00    +0.002 C 
ATOM     81  CD1 ILE A   3      12.956  -6.975  16.789  0.00  0.00    +0.000 C 
ENDBRANCH  78  80
ENDBRANCH  53  78
ENDBRANCH  49  53
ENDBRANCH  48  51
ENDBRANCH  44  48
ENDBRANCH  43  45
ENDBRANCH   1  43
TORSDOF 36
REMARK  Name = ../refined-set-2016/2fgu/2fgu_pocket.pdb
REMARK  231 active torsions:
REMARK  status: ('A' for Active; 'I' for Inactive)
REMARK    1  A    between atoms: _1  and  _3
REMARK    2  A    between atoms: _3  and  _4
REMARK    3  A    between atoms: _3  and  _6
REMARK    4  A    between atoms: _6  and  _7
REMARK    5  A    between atoms: _7  and  _8
REMARK    6  A    between atoms: _8  and  _9
REMARK    7  A    between atoms: _18  and  _20
REMARK    8  A    between atoms: _20  and  _21
REMARK    9  A    between atoms: _20  and  _23
REMARK   10  A    between atoms: _23  and  _24
REMARK   11  A    between atoms: _27  and  _29
REMARK   12  A    between atoms: _29  and  _30
REMARK   13  A    between atoms: _29  and  _32
REMARK   14  A    between atoms: _32  and  _33
REMARK   15  A    between atoms: _36  and  _38
REMARK   16  A    between atoms: _38  and  _39
REMARK   17  A    between atoms: _38  and  _41
REMARK   18  A    between atoms: _41  and  _42
REMARK   19  A    between atoms: _45  and  _47
REMARK   20  A    between atoms: _47  and  _48
REMARK   21  A    between atoms: _47  and  _50
REMARK   22  A    between atoms: _50  and  _51
REMARK   23  A    between atoms: _54  and  _56
REMARK   24  A    between atoms: _56  and  _57
REMARK   25  A    between atoms: _59  and  _61
REMARK   26  A    between atoms: _61  and  _62
REMARK   27  A    between atoms: _65  and  _67
REMARK   28  A    between atoms: _67  and  _68
REMARK   29  A    between atoms: _67  and  _70
REMARK   30  A    between atoms: _70  and  _71
REMARK   31  A    between atoms: _74  and  _76
REMARK   32  A    between atoms: _76  and  _77
REMARK   33  A    between atoms: _76  and  _79
REMARK   34  A    between atoms: _79  and  _80
REMARK   35  A    between atoms: _83  and  _85
REMARK   36  A    between atoms: _85  and  _86
REMARK   37  A    between atoms: _85  and  _88
REMARK   38  A    between atoms: _88  and  _89
REMARK   39  A    between atoms: _92  and  _94
REMARK   40  A    between atoms: _94  and  _95
REMARK   41  A    between atoms: _94  and  _97
REMARK   42  A    between atoms: _100  and  _102
REMARK   43  A    between atoms: _102  and  _103
REMARK   44  A    between atoms: _102  and  _105
REMARK   45  A    between atoms: _105  and  _106
REMARK   46  A    between atoms: _106  and  _107
REMARK   47  A    between atoms: _107  and  _108
REMARK   48  A    between atoms: _108  and  _109
REMARK   49  A    between atoms: _113  and  _115
REMARK   50  A    between atoms: _115  and  _116
REMARK   51  A    between atoms: _115  and  _118
REMARK   52  A    between atoms: _118  and  _119
REMARK   53  A    between atoms: _119  and  _120
REMARK   54  A    between atoms: _122  and  _124
REMARK   55  A    between atoms: _124  and  _125
REMARK   56  A    between atoms: _124  and  _127
REMARK   57  A    between atoms: _127  and  _128
REMARK   58  A    between atoms: _131  and  _133
REMARK   59  A    between atoms: _133  and  _134
REMARK   60  A    between atoms: _136  and  _138
REMARK   61  A    between atoms: _138  and  _139
REMARK   62  A    between atoms: _141  and  _143
REMARK   63  A    between atoms: _143  and  _144
REMARK   64  A    between atoms: _143  and  _146
REMARK   65  A    between atoms: _146  and  _147
REMARK   66  A    between atoms: _150  and  _152
REMARK   67  A    between atoms: _152  and  _153
REMARK   68  A    between atoms: _155  and  _157
REMARK   69  A    between atoms: _157  and  _158
REMARK   70  A    between atoms: _160  and  _162
REMARK   71  A    between atoms: _162  and  _163
REMARK   72  A    between atoms: _162  and  _165
REMARK   73  A    between atoms: _165  and  _166
REMARK   74  A    between atoms: _172  and  _174
REMARK   75  A    between atoms: _174  and  _175
REMARK   76  A    between atoms: _174  and  _177
REMARK   77  A    between atoms: _177  and  _178
REMARK   78  A    between atoms: _181  and  _183
REMARK   79  A    between atoms: _183  and  _184
REMARK   80  A    between atoms: _183  and  _186
REMARK   81  A    between atoms: _189  and  _191
REMARK   82  A    between atoms: _191  and  _192
REMARK   83  A    between atoms: _191  and  _194
REMARK   84  A    between atoms: _194  and  _195
REMARK   85  A    between atoms: _199  and  _200
REMARK   86  A    between atoms: _205  and  _207
REMARK   87  A    between atoms: _207  and  _208
REMARK   88  A    between atoms: _207  and  _210
REMARK   89  A    between atoms: _210  and  _211
REMARK   90  A    between atoms: _214  and  _215
REMARK   91  A    between atoms: _220  and  _222
REMARK   92  A    between atoms: _222  and  _223
REMARK   93  A    between atoms: _222  and  _225
REMARK   94  A    between atoms: _228  and  _230
REMARK   95  A    between atoms: _230  and  _231
REMARK   96  A    between atoms: _230  and  _233
REMARK   97  A    between atoms: _233  and  _234
REMARK   98  A    between atoms: _239  and  _241
REMARK   99  A    between atoms: _241  and  _242
REMARK  100  A    between atoms: _241  and  _244
REMARK  101  A    between atoms: _244  and  _245
REMARK  102  A    between atoms: _248  and  _250
REMARK  103  A    between atoms: _250  and  _251
REMARK  104  A    between atoms: _250  and  _253
REMARK  105  A    between atoms: _253  and  _254
REMARK  106  A    between atoms: _257  and  _259
REMARK  107  A    between atoms: _259  and  _260
REMARK  108  A    between atoms: _262  and  _264
REMARK  109  A    between atoms: _264  and  _265
REMARK  110  A    between atoms: _264  and  _267
REMARK  111  A    between atoms: _267  and  _268
REMARK  112  A    between atoms: _268  and  _269
REMARK  113  A    between atoms: _269  and  _270
REMARK  114  A    between atoms: _279  and  _281
REMARK  115  A    between atoms: _281  and  _282
REMARK  116  A    between atoms: _281  and  _284
REMARK  117  A    between atoms: _284  and  _285
REMARK  118  A    between atoms: _290  and  _292
REMARK  119  A    between atoms: _292  and  _293
REMARK  120  A    between atoms: _292  and  _295
REMARK  121  A    between atoms: _295  and  _296
REMARK  122  A    between atoms: _296  and  _297
REMARK  123  A    between atoms: _297  and  _298
REMARK  124  A    between atoms: _307  and  _309
REMARK  125  A    between atoms: _309  and  _310
REMARK  126  A    between atoms: _309  and  _312
REMARK  127  A    between atoms: _312  and  _313
REMARK  128  A    between atoms: _316  and  _318
REMARK  129  A    between atoms: _318  and  _319
REMARK  130  A    between atoms: _318  and  _321
REMARK  131  A    between atoms: _321  and  _322
REMARK  132  A    between atoms: _325  and  _327
REMARK  133  A    between atoms: _327  and  _328
REMARK  134  A    between atoms: _327  and  _330
REMARK  135  A    between atoms: _330  and  _331
REMARK  136  A    between atoms: _334  and  _336
REMARK  137  A    between atoms: _336  and  _337
REMARK  138  A    between atoms: _336  and  _339
REMARK  139  A    between atoms: _339  and  _340
REMARK  140  A    between atoms: _343  and  _345
REMARK  141  A    between atoms: _345  and  _346
REMARK  142  A    between atoms: _348  and  _350
REMARK  143  A    between atoms: _350  and  _351
REMARK  144  A    between atoms: _354  and  _356
REMARK  145  A    between atoms: _356  and  _357
REMARK  146  A    between atoms: _356  and  _359
REMARK  147  A    between atoms: _359  and  _360
REMARK  148  A    between atoms: _363  and  _365
REMARK  149  A    between atoms: _365  and  _366
REMARK  150  A    between atoms: _365  and  _368
REMARK  151  A    between atoms: _368  and  _369
REMARK  152  A    between atoms: _372  and  _374
REMARK  153  A    between atoms: _374  and  _375
REMARK  154  A    between atoms: _374  and  _377
REMARK  155  A    between atoms: _377  and  _378
REMARK  156  A    between atoms: _381  and  _383
REMARK  157  A    between atoms: _383  and  _384
REMARK  158  A    between atoms: _383  and  _386
REMARK  159  A    between atoms: _389  and  _391
REMARK  160  A    between atoms: _391  and  _392
REMARK  161  A    between atoms: _391  and  _394
REMARK  162  A    between atoms: _394  and  _395
REMARK  163  A    between atoms: _398  and  _400
REMARK  164  A    between atoms: _400  and  _401
REMARK  165  A    between atoms: _400  and  _403
REMARK  166  A    between atoms: _403  and  _404
REMARK  167  A    between atoms: _404  and  _405
REMARK  168  A    between atoms: _407  and  _409
REMARK  169  A    between atoms: _409  and  _410
REMARK  170  A    between atoms: _409  and  _412
REMARK  171  A    between atoms: _412  and  _413
REMARK  172  A    between atoms: _416  and  _418
REMARK  173  A    between atoms: _418  and  _419
REMARK  174  A    between atoms: _421  and  _423
REMARK  175  A    between atoms: _423  and  _424
REMARK  176  A    between atoms: _426  and  _428
REMARK  177  A    between atoms: _428  and  _429
REMARK  178  A    between atoms: _428  and  _431
REMARK  179  A    between atoms: _431  and  _432
REMARK  180  A    between atoms: _435  and  _437
REMARK  181  A    between atoms: _437  and  _438
REMARK  182  A    between atoms: _440  and  _442
REMARK  183  A    between atoms: _442  and  _443
REMARK  184  A    between atoms: _445  and  _447
REMARK  185  A    between atoms: _447  and  _448
REMARK  186  A    between atoms: _447  and  _450
REMARK  187  A    between atoms: _450  and  _451
REMARK  188  A    between atoms: _457  and  _459
REMARK  189  A    between atoms: _459  and  _460
REMARK  190  A    between atoms: _459  and  _462
REMARK  191  A    between atoms: _462  and  _463
REMARK  192  A    between atoms: _466  and  _468
REMARK  193  A    between atoms: _468  and  _469
REMARK  194  A    between atoms: _468  and  _471
REMARK  195  A    between atoms: _474  and  _476
REMARK  196  A    between atoms: _476  and  _477
REMARK  197  A    between atoms: _476  and  _479
REMARK  198  A    between atoms: _479  and  _480
REMARK  199  A    between atoms: _484  and  _485
REMARK  200  A    between atoms: _490  and  _492
REMARK  201  A    between atoms: _492  and  _493
REMARK  202  A    between atoms: _492  and  _495
REMARK  203  A    between atoms: _495  and  _496
REMARK  204  A    between atoms: _499  and  _500
REMARK  205  A    between atoms: _505  and  _507
REMARK  206  A    between atoms: _507  and  _508
REMARK  207  A    between atoms: _507  and  _510
REMARK  208  A    between atoms: _513  and  _515
REMARK  209  A    between atoms: _515  and  _516
REMARK  210  A    between atoms: _515  and  _518
REMARK  211  A    between atoms: _518  and  _519
REMARK  212  A    between atoms: _524  and  _526
REMARK  213  A    between atoms: _526  and  _527
REMARK  214  A    between atoms: _526  and  _529
REMARK  215  A    between atoms: _529  and  _530
REMARK  216  A    between atoms: _533  and  _535
REMARK  217  A    between atoms: _535  and  _536
REMARK  218  A    between atoms: _535  and  _538
REMARK  219  A    between atoms: _538  and  _539
REMARK  220  A    between atoms: _542  and  _544
REMARK  221  A    between atoms: _544  and  _545
REMARK  222  A    between atoms: _547  and  _549
REMARK  223  A    between atoms: _549  and  _550
REMARK  224  A    between atoms: _549  and  _552
REMARK  225  A    between atoms: _552  and  _553
REMARK  226  A    between atoms: _553  and  _554
REMARK  227  A    between atoms: _554  and  _555
REMARK  228  A    between atoms: _564  and  _566
REMARK  229  A    between atoms: _566  and  _567
REMARK  230  A    between atoms: _566  and  _569
REMARK  231  A    between atoms: _569  and  _570
REMARK                            x       y       z     vdW  Elec       q    Type
REMARK                         _______ _______ _______ _____ _____    ______ ____
ROOT
ATOM      1  CA  VAL A   1       7.543  -9.378  19.131  0.00  0.00    +0.133 C 
ENDROOT
BRANCH   1   2
ATOM      2  CB  VAL A   1       8.309  -8.532  18.089  0.00  0.00    +0.023 C 
ATOM      3  CG2 VAL A   1       9.312  -7.589  18.769  0.00  0.00    +0.002 C 
ATOM      4  CG1 VAL A   1       9.015  -9.430  17.085  0.00  0.00    +0.002 C 
ENDBRANCH   1   2
BRANCH   1   5
ATOM      5  N   VAL A   1       8.408 -10.330  19.828  0.00  0.00    -0.239 NA
ATOM      6  H   VAL A   1       8.675 -11.208  19.338  0.00  0.00    +0.142 HD
ENDBRANCH   1   5
BRANCH   1   7
ATOM      7  C   VAL A   1       6.412 -10.128  18.437  0.00  0.00    +0.224 C 
ATOM      8  O   VAL A   1       6.488 -11.341  18.237  0.00  0.00    -0.287 OA
ENDBRANCH   1   7
TORSDOF 3
REMARK  Name = ../refined-set-2016/2fgu/2fgu_pocket.pdb
REMARK  231 active torsions:
REMARK  status: ('A' for Active; 'I' for Inactive)
REMARK    1  A    between atoms: _1  and  _3
REMARK    2  A    between atoms: _3  and  _4
REMARK    3  A    between atoms: _3  and  _6
REMARK    4  A    between atoms: _6  and  _7
REMARK    5  A    between atoms: _7  and  _8
REMARK    6  A    between atoms: _8  and  _9
REMARK    7  A    between atoms: _18  and  _20
REMARK    8  A    between atoms: _20  and  _21
REMARK    9  A    between atoms: _20  and  _23
REMARK   10  A    between atoms: _23  and  _24
REMARK   11  A    between atoms: _27  and  _29
REMARK   12  A    between atoms: _29  and  _30
REMARK   13  A    between atoms: _29  and  _32
REMARK   14  A    between atoms: _32  and  _33
REMARK   15  A    between atoms: _36  and  _38
REMARK   16  A    between atoms: _38  and  _39
REMARK   17  A    between atoms: _38  and  _41
REMARK   18  A    between atoms: _41  and  _42
REMARK   19  A    between atoms: _45  and  _47
REMARK   20  A    between atoms: _47  and  _48
REMARK   21  A    between atoms: _47  and  _50
REMARK   22  A    between atoms: _50  and  _51
REMARK   23  A    between atoms: _54  and  _56
REMARK   24  A    between atoms: _56  and  _57
REMARK   25  A    between atoms: _59  and  _61
REMARK   26  A    between atoms: _61  and  _62
REMARK   27  A    between atoms: _65  and  _67
REMARK   28  A    between atoms: _67  and  _68
REMARK   29  A    between atoms: _67  and  _70
REMARK   30  A    between atoms: _70  and  _71
REMARK   31  A    between atoms: _74  and  _76
REMARK   32  A    between atoms: _76  and  _77
REMARK   33  A    between atoms: _76  and  _79
REMARK   34  A    between atoms: _79  and  _80
REMARK   35  A    between atoms: _83  and  _85
REMARK   36  A    between atoms: _85  and  _86
REMARK   37  A    between atoms: _85  and  _88
REMARK   38  A    between atoms: _88  and  _89
REMARK   39  A    between atoms: _92  and  _94
REMARK   40  A    between atoms: _94  and  _95
REMARK   41  A    between atoms: _94  and  _97
REMARK   42  A    between atoms: _100  and  _102
REMARK   43  A    between atoms: _102  and  _103
REMARK   44  A    between atoms: _102  and  _105
REMARK   45  A    between atoms: _105  and  _106
REMARK   46  A    between atoms: _106  and  _107
REMARK   47  A    between atoms: _107  and  _108
REMARK   48  A    between atoms: _108  and  _109
REMARK   49  A    between atoms: _113  and  _115
REMARK   50  A    between atoms: _115  and  _116
REMARK   51  A    between atoms: _115  and  _118
REMARK   52  A    between atoms: _118  and  _119
REMARK   53  A    between atoms: _119  and  _120
REMARK   54  A    between atoms: _122  and  _124
REMARK   55  A    between atoms: _124  and  _125
REMARK   56  A    between atoms: _124  and  _127
REMARK   57  A    between atoms: _127  and  _128
REMARK   58  A    between atoms: _131  and  _133
REMARK   59  A    between atoms: _133  and  _134
REMARK   60  A    between atoms: _136  and  _138
REMARK   61  A    between atoms: _138  and  _139
REMARK   62  A    between atoms: _141  and  _143
REMARK   63  A    between atoms: _143  and  _144
REMARK   64  A    between atoms: _143  and  _146
REMARK   65  A    between atoms: _146  and  _147
REMARK   66  A    between atoms: _150  and  _152
REMARK   67  A    between atoms: _152  and  _153
REMARK   68  A    between atoms: _155  and  _157
REMARK   69  A    between atoms: _157  and  _158
REMARK   70  A    between atoms: _160  and  _162
REMARK   71  A    between atoms: _162  and  _163
REMARK   72  A    between atoms: _162  and  _165
REMARK   73  A    between atoms: _165  and  _166
REMARK   74  A    between atoms: _172  and  _174
REMARK   75  A    between atoms: _174  and  _175
REMARK   76  A    between atoms: _174  and  _177
REMARK   77  A    between atoms: _177  and  _178
REMARK   78  A    between atoms: _181  and  _183
REMARK   79  A    between atoms: _183  and  _184
REMARK   80  A    between atoms: _183  and  _186
REMARK   81  A    between atoms: _189  and  _191
REMARK   82  A    between atoms: _191  and  _192
REMARK   83  A    between atoms: _191  and  _194
REMARK   84  A    between atoms: _194  and  _195
REMARK   85  A    between atoms: _199  and  _200
REMARK   86  A    between atoms: _205  and  _207
REMARK   87  A    between atoms: _207  and  _208
REMARK   88  A    between atoms: _207  and  _210
REMARK   89  A    between atoms: _210  and  _211
REMARK   90  A    between atoms: _214  and  _215
REMARK   91  A    between atoms: _220  and  _222
REMARK   92  A    between atoms: _222  and  _223
REMARK   93  A    between atoms: _222  and  _225
REMARK   94  A    between atoms: _228  and  _230
REMARK   95  A    between atoms: _230  and  _231
REMARK   96  A    between atoms: _230  and  _233
REMARK   97  A    between atoms: _233  and  _234
REMARK   98  A    between atoms: _239  and  _241
REMARK   99  A    between atoms: _241  and  _242
REMARK  100  A    between atoms: _241  and  _244
REMARK  101  A    between atoms: _244  and  _245
REMARK  102  A    between atoms: _248  and  _250
REMARK  103  A    between atoms: _250  and  _251
REMARK  104  A    between atoms: _250  and  _253
REMARK  105  A    between atoms: _253  and  _254
REMARK  106  A    between atoms: _257  and  _259
REMARK  107  A    between atoms: _259  and  _260
REMARK  108  A    between atoms: _262  and  _264
REMARK  109  A    between atoms: _264  and  _265
REMARK  110  A    between atoms: _264  and  _267
REMARK  111  A    between atoms: _267  and  _268
REMARK  112  A    between atoms: _268  and  _269
REMARK  113  A    between atoms: _269  and  _270
REMARK  114  A    between atoms: _279  and  _281
REMARK  115  A    between atoms: _281  and  _282
REMARK  116  A    between atoms: _281  and  _284
REMARK  117  A    between atoms: _284  and  _285
REMARK  118  A    between atoms: _290  and  _292
REMARK  119  A    between atoms: _292  and  _293
REMARK  120  A    between atoms: _292  and  _295
REMARK  121  A    between atoms: _295  and  _296
REMARK  122  A    between atoms: _296  and  _297
REMARK  123  A    between atoms: _297  and  _298
REMARK  124  A    between atoms: _307  and  _309
REMARK  125  A    between atoms: _309  and  _310
REMARK  126  A    between atoms: _309  and  _312
REMARK  127  A    between atoms: _312  and  _313
REMARK  128  A    between atoms: _316  and  _318
REMARK  129  A    between atoms: _318  and  _319
REMARK  130  A    between atoms: _318  and  _321
REMARK  131  A    between atoms: _321  and  _322
REMARK  132  A    between atoms: _325  and  _327
REMARK  133  A    between atoms: _327  and  _328
REMARK  134  A    between atoms: _327  and  _330
REMARK  135  A    between atoms: _330  and  _331
REMARK  136  A    between atoms: _334  and  _336
REMARK  137  A    between atoms: _336  and  _337
REMARK  138  A    between atoms: _336  and  _339
REMARK  139  A    between atoms: _339  and  _340
REMARK  140  A    between atoms: _343  and  _345
REMARK  141  A    between atoms: _345  and  _346
REMARK  142  A    between atoms: _348  and  _350
REMARK  143  A    between atoms: _350  and  _351
REMARK  144  A    between atoms: _354  and  _356
REMARK  145  A    between atoms: _356  and  _357
REMARK  146  A    between atoms: _356  and  _359
REMARK  147  A    between atoms: _359  and  _360
REMARK  148  A    between atoms: _363  and  _365
REMARK  149  A    between atoms: _365  and  _366
REMARK  150  A    between atoms: _365  and  _368
REMARK  151  A    between atoms: _368  and  _369
REMARK  152  A    between atoms: _372  and  _374
REMARK  153  A    between atoms: _374  and  _375
REMARK  154  A    between atoms: _374  and  _377
REMARK  155  A    between atoms: _377  and  _378
REMARK  156  A    between atoms: _381  and  _383
REMARK  157  A    between atoms: _383  and  _384
REMARK  158  A    between atoms: _383  and  _386
REMARK  159  A    between atoms: _389  and  _391
REMARK  160  A    between atoms: _391  and  _392
REMARK  161  A    between atoms: _391  and  _394
REMARK  162  A    between atoms: _394  and  _395
REMARK  163  A    between atoms: _398  and  _400
REMARK  164  A    between atoms: _400  and  _401
REMARK  165  A    between atoms: _400  and  _403
REMARK  166  A    between atoms: _403  and  _404
REMARK  167  A    between atoms: _404  and  _405
REMARK  168  A    between atoms: _407  and  _409
REMARK  169  A    between atoms: _409  and  _410
REMARK  170  A    between atoms: _409  and  _412
REMARK  171  A    between atoms: _412  and  _413
REMARK  172  A    between atoms: _416  and  _418
REMARK  173  A    between atoms: _418  and  _419
REMARK  174  A    between atoms: _421  and  _423
REMARK  175  A    between atoms: _423  and  _424
REMARK  176  A    between atoms: _426  and  _428
REMARK  177  A    between atoms: _428  and  _429
REMARK  178  A    between atoms: _428  and  _431
REMARK  179  A    between atoms: _431  and  _432
REMARK  180  A    between atoms: _435  and  _437
REMARK  181  A    between atoms: _437  and  _438
REMARK  182  A    between atoms: _440  and  _442
REMARK  183  A    between atoms: _442  and  _443
REMARK  184  A    between atoms: _445  and  _447
REMARK  185  A    between atoms: _447  and  _448
REMARK  186  A    between atoms: _447  and  _450
REMARK  187  A    between atoms: _450  and  _451
REMARK  188  A    between atoms: _457  and  _459
REMARK  189  A    between atoms: _459  and  _460
REMARK  190  A    between atoms: _459  and  _462
REMARK  191  A    between atoms: _462  and  _463
REMARK  192  A    between atoms: _466  and  _468
REMARK  193  A    between atoms: _468  and  _469
REMARK  194  A    between atoms: _468  and  _471
REMARK  195  A    between atoms: _474  and  _476
REMARK  196  A    between atoms: _476  and  _477
REMARK  197  A    between atoms: _476  and  _479
REMARK  198  A    between atoms: _479  and  _480
REMARK  199  A    between atoms: _484  and  _485
REMARK  200  A    between atoms: _490  and  _492
REMARK  201  A    between atoms: _492  and  _493
REMARK  202  A    between atoms: _492  and  _495
REMARK  203  A    between atoms: _495  and  _496
REMARK  204  A    between atoms: _499  and  _500
REMARK  205  A    between atoms: _505  and  _507
REMARK  206  A    between atoms: _507  and  _508
REMARK  207  A    between atoms: _507  and  _510
REMARK  208  A    between atoms: _513  and  _515
REMARK  209  A    between atoms: _515  and  _516
REMARK  210  A    between atoms: _515  and  _518
REMARK  211  A    between atoms: _518  and  _519
REMARK  212  A    between atoms: _524  and  _526
REMARK  213  A    between atoms: _526  and  _527
REMARK  214  A    between atoms: _526  and  _529
REMARK  215  A    between atoms: _529  and  _530
REMARK  216  A    between atoms: _533  and  _535
REMARK  217  A    between atoms: _535  and  _536
REMARK  218  A    between atoms: _535  and  _538
REMARK  219  A    between atoms: _538  and  _539
REMARK  220  A    between atoms: _542  and  _544
REMARK  221  A    between atoms: _544  and  _545
REMARK  222  A    between atoms: _547  and  _549
REMARK  223  A    between atoms: _549  and  _550
REMARK  224  A    between atoms: _549  and  _552
REMARK  225  A    between atoms: _552  and  _553
REMARK  226  A    between atoms: _553  and  _554
REMARK  227  A    between atoms: _554  and  _555
REMARK  228  A    between atoms: _564  and  _566
REMARK  229  A    between atoms: _566  and  _567
REMARK  230  A    between atoms: _566  and  _569
REMARK  231  A    between atoms: _569  and  _570
REMARK                            x       y       z     vdW  Elec       q    Type
REMARK                         _______ _______ _______ _____ _____    ______ ____
ROOT
ATOM      1  CA  LEU A   1       6.819  -6.184  14.382  0.00  0.00    +0.133 C 
ENDROOT
BRANCH   1   2
ATOM      2  N   LEU A   1       6.638  -5.405  13.180  0.00  0.00    -0.239 NA
ATOM      3  H   LEU A   1       7.348  -4.686  12.934  0.00  0.00    +0.142 HD
ENDBRANCH   1   2
BRANCH   1   4
ATOM      4  C   LEU A   1       6.534  -5.301  15.587  0.00  0.00    +0.224 C 
ATOM      5  O   LEU A   1       7.042  -4.184  15.683  0.00  0.00    -0.287 OA
ENDBRANCH   1   4
BRANCH   1   6
ATOM      6  CB  LEU A   1       8.234  -6.760  14.430  0.00  0.00    +0.025 C 
BRANCH   6   7
ATOM      7  CG  LEU A   1       8.671  -7.465  13.145  0.00  0.00    +0.002 C 
ATOM      8  CD2 LEU A   1      10.156  -7.822  13.213  0.00  0.00    +0.000 C 
ATOM      9  CD1 LEU A   1       7.814  -8.701  12.801  0.00  0.00    +0.000 C 
ENDBRANCH   6   7
ENDBRANCH   1   6
TORSDOF 4
REMARK  Name = ../refined-set-2016/2fgu/2fgu_pocket.pdb
REMARK  231 active torsions:
REMARK  status: ('A' for Active; 'I' for Inactive)
REMARK    1  A    between atoms: _1  and  _3
REMARK    2  A    between atoms: _3  and  _4
REMARK    3  A    between atoms: _3  and  _6
REMARK    4  A    between atoms: _6  and  _7
REMARK    5  A    between atoms: _7  and  _8
REMARK    6  A    between atoms: _8  and  _9
REMARK    7  A    between atoms: _18  and  _20
REMARK    8  A    between atoms: _20  and  _21
REMARK    9  A    between atoms: _20  and  _23
REMARK   10  A    between atoms: _23  and  _24
REMARK   11  A    between atoms: _27  and  _29
REMARK   12  A    between atoms: _29  and  _30
REMARK   13  A    between atoms: _29  and  _32
REMARK   14  A    between atoms: _32  and  _33
REMARK   15  A    between atoms: _36  and  _38
REMARK   16  A    between atoms: _38  and  _39
REMARK   17  A    between atoms: _38  and  _41
REMARK   18  A    between atoms: _41  and  _42
REMARK   19  A    between atoms: _45  and  _47
REMARK   20  A    between atoms: _47  and  _48
REMARK   21  A    between atoms: _47  and  _50
REMARK   22  A    between atoms: _50  and  _51
REMARK   23  A    between atoms: _54  and  _56
REMARK   24  A    between atoms: _56  and  _57
REMARK   25  A    between atoms: _59  and  _61
REMARK   26  A    between atoms: _61  and  _62
REMARK   27  A    between atoms: _65  and  _67
REMARK   28  A    between atoms: _67  and  _68
REMARK   29  A    between atoms: _67  and  _70
REMARK   30  A    between atoms: _70  and  _71
REMARK   31  A    between atoms: _74  and  _76
REMARK   32  A    between atoms: _76  and  _77
REMARK   33  A    between atoms: _76  and  _79
REMARK   34  A    between atoms: _79  and  _80
REMARK   35  A    between atoms: _83  and  _85
REMARK   36  A    between atoms: _85  and  _86
REMARK   37  A    between atoms: _85  and  _88
REMARK   38  A    between atoms: _88  and  _89
REMARK   39  A    between atoms: _92  and  _94
REMARK   40  A    between atoms: _94  and  _95
REMARK   41  A    between atoms: _94  and  _97
REMARK   42  A    between atoms: _100  and  _102
REMARK   43  A    between atoms: _102  and  _103
REMARK   44  A    between atoms: _102  and  _105
REMARK   45  A    between atoms: _105  and  _106
REMARK   46  A    between atoms: _106  and  _107
REMARK   47  A    between atoms: _107  and  _108
REMARK   48  A    between atoms: _108  and  _109
REMARK   49  A    between atoms: _113  and  _115
REMARK   50  A    between atoms: _115  and  _116
REMARK   51  A    between atoms: _115  and  _118
REMARK   52  A    between atoms: _118  and  _119
REMARK   53  A    between atoms: _119  and  _120
REMARK   54  A    between atoms: _122  and  _124
REMARK   55  A    between atoms: _124  and  _125
REMARK   56  A    between atoms: _124  and  _127
REMARK   57  A    between atoms: _127  and  _128
REMARK   58  A    between atoms: _131  and  _133
REMARK   59  A    between atoms: _133  and  _134
REMARK   60  A    between atoms: _136  and  _138
REMARK   61  A    between atoms: _138  and  _139
REMARK   62  A    between atoms: _141  and  _143
REMARK   63  A    between atoms: _143  and  _144
REMARK   64  A    between atoms: _143  and  _146
REMARK   65  A    between atoms: _146  and  _147
REMARK   66  A    between atoms: _150  and  _152
REMARK   67  A    between atoms: _152  and  _153
REMARK   68  A    between atoms: _155  and  _157
REMARK   69  A    between atoms: _157  and  _158
REMARK   70  A    between atoms: _160  and  _162
REMARK   71  A    between atoms: _162  and  _163
REMARK   72  A    between atoms: _162  and  _165
REMARK   73  A    between atoms: _165  and  _166
REMARK   74  A    between atoms: _172  and  _174
REMARK   75  A    between atoms: _174  and  _175
REMARK   76  A    between atoms: _174  and  _177
REMARK   77  A    between atoms: _177  and  _178
REMARK   78  A    between atoms: _181  and  _183
REMARK   79  A    between atoms: _183  and  _184
REMARK   80  A    between atoms: _183  and  _186
REMARK   81  A    between atoms: _189  and  _191
REMARK   82  A    between atoms: _191  and  _192
REMARK   83  A    between atoms: _191  and  _194
REMARK   84  A    between atoms: _194  and  _195
REMARK   85  A    between atoms: _199  and  _200
REMARK   86  A    between atoms: _205  and  _207
REMARK   87  A    between atoms: _207  and  _208
REMARK   88  A    between atoms: _207  and  _210
REMARK   89  A    between atoms: _210  and  _211
REMARK   90  A    between atoms: _214  and  _215
REMARK   91  A    between atoms: _220  and  _222
REMARK   92  A    between atoms: _222  and  _223
REMARK   93  A    between atoms: _222  and  _225
REMARK   94  A    between atoms: _228  and  _230
REMARK   95  A    between atoms: _230  and  _231
REMARK   96  A    between atoms: _230  and  _233
REMARK   97  A    between atoms: _233  and  _234
REMARK   98  A    between atoms: _239  and  _241
REMARK   99  A    between atoms: _241  and  _242
REMARK  100  A    between atoms: _241  and  _244
REMARK  101  A    between atoms: _244  and  _245
REMARK  102  A    between atoms: _248  and  _250
REMARK  103  A    between atoms: _250  and  _251
REMARK  104  A    between atoms: _250  and  _253
REMARK  105  A    between atoms: _253  and  _254
REMARK  106  A    between atoms: _257  and  _259
REMARK  107  A    between atoms: _259  and  _260
REMARK  108  A    between atoms: _262  and  _264
REMARK  109  A    between atoms: _264  and  _265
REMARK  110  A    between atoms: _264  and  _267
REMARK  111  A    between atoms: _267  and  _268
REMARK  112  A    between atoms: _268  and  _269
REMARK  113  A    between atoms: _269  and  _270
REMARK  114  A    between atoms: _279  and  _281
REMARK  115  A    between atoms: _281  and  _282
REMARK  116  A    between atoms: _281  and  _284
REMARK  117  A    between atoms: _284  and  _285
REMARK  118  A    between atoms: _290  and  _292
REMARK  119  A    between atoms: _292  and  _293
REMARK  120  A    between atoms: _292  and  _295
REMARK  121  A    between atoms: _295  and  _296
REMARK  122  A    between atoms: _296  and  _297
REMARK  123  A    between atoms: _297  and  _298
REMARK  124  A    between atoms: _307  and  _309
REMARK  125  A    between atoms: _309  and  _310
REMARK  126  A    between atoms: _309  and  _312
REMARK  127  A    between atoms: _312  and  _313
REMARK  128  A    between atoms: _316  and  _318
REMARK  129  A    between atoms: _318  and  _319
REMARK  130  A    between atoms: _318  and  _321
REMARK  131  A    between atoms: _321  and  _322
REMARK  132  A    between atoms: _325  and  _327
REMARK  133  A    between atoms: _327  and  _328
REMARK  134  A    between atoms: _327  and  _330
REMARK  135  A    between atoms: _330  and  _331
REMARK  136  A    between atoms: _334  and  _336
REMARK  137  A    between atoms: _336  and  _337
REMARK  138  A    between atoms: _336  and  _339
REMARK  139  A    between atoms: _339  and  _340
REMARK  140  A    between atoms: _343  and  _345
REMARK  141  A    between atoms: _345  and  _346
REMARK  142  A    between atoms: _348  and  _350
REMARK  143  A    between atoms: _350  and  _351
REMARK  144  A    between atoms: _354  and  _356
REMARK  145  A    between atoms: _356  and  _357
REMARK  146  A    between atoms: _356  and  _359
REMARK  147  A    between atoms: _359  and  _360
REMARK  148  A    between atoms: _363  and  _365
REMARK  149  A    between atoms: _365  and  _366
REMARK  150  A    between atoms: _365  and  _368
REMARK  151  A    between atoms: _368  and  _369
REMARK  152  A    between atoms: _372  and  _374
REMARK  153  A    between atoms: _374  and  _375
REMARK  154  A    between atoms: _374  and  _377
REMARK  155  A    between atoms: _377  and  _378
REMARK  156  A    between atoms: _381  and  _383
REMARK  157  A    between atoms: _383  and  _384
REMARK  158  A    between atoms: _383  and  _386
REMARK  159  A    between atoms: _389  and  _391
REMARK  160  A    between atoms: _391  and  _392
REMARK  161  A    between atoms: _391  and  _394
REMARK  162  A    between atoms: _394  and  _395
REMARK  163  A    between atoms: _398  and  _400
REMARK  164  A    between atoms: _400  and  _401
REMARK  165  A    between atoms: _400  and  _403
REMARK  166  A    between atoms: _403  and  _404
REMARK  167  A    between atoms: _404  and  _405
REMARK  168  A    between atoms: _407  and  _409
REMARK  169  A    between atoms: _409  and  _410
REMARK  170  A    between atoms: _409  and  _412
REMARK  171  A    between atoms: _412  and  _413
REMARK  172  A    between atoms: _416  and  _418
REMARK  173  A    between atoms: _418  and  _419
REMARK  174  A    between atoms: _421  and  _423
REMARK  175  A    between atoms: _423  and  _424
REMARK  176  A    between atoms: _426  and  _428
REMARK  177  A    between atoms: _428  and  _429
REMARK  178  A    between atoms: _428  and  _431
REMARK  179  A    between atoms: _431  and  _432
REMARK  180  A    between atoms: _435  and  _437
REMARK  181  A    between atoms: _437  and  _438
REMARK  182  A    between atoms: _440  and  _442
REMARK  183  A    between atoms: _442  and  _443
REMARK  184  A    between atoms: _445  and  _447
REMARK  185  A    between atoms: _447  and  _448
REMARK  186  A    between atoms: _447  and  _450
REMARK  187  A    between atoms: _450  and  _451
REMARK  188  A    between atoms: _457  and  _459
REMARK  189  A    between atoms: _459  and  _460
REMARK  190  A    between atoms: _459  and  _462
REMARK  191  A    between atoms: _462  and  _463
REMARK  192  A    between atoms: _466  and  _468
REMARK  193  A    between atoms: _468  and  _469
REMARK  194  A    between atoms: _468  and  _471
REMARK  195  A    between atoms: _474  and  _476
REMARK  196  A    between atoms: _476  and  _477
REMARK  197  A    between atoms: _476  and  _479
REMARK  198  A    between atoms: _479  and  _480
REMARK  199  A    between atoms: _484  and  _485
REMARK  200  A    between atoms: _490  and  _492
REMARK  201  A    between atoms: _492  and  _493
REMARK  202  A    between atoms: _492  and  _495
REMARK  203  A    between atoms: _495  and  _496
REMARK  204  A    between atoms: _499  and  _500
REMARK  205  A    between atoms: _505  and  _507
REMARK  206  A    between atoms: _507  and  _508
REMARK  207  A    between atoms: _507  and  _510
REMARK  208  A    between atoms: _513  and  _515
REMARK  209  A    between atoms: _515  and  _516
REMARK  210  A    between atoms: _515  and  _518
REMARK  211  A    between atoms: _518  and  _519
REMARK  212  A    between atoms: _524  and  _526
REMARK  213  A    between atoms: _526  and  _527
REMARK  214  A    between atoms: _526  and  _529
REMARK  215  A    between atoms: _529  and  _530
REMARK  216  A    between atoms: _533  and  _535
REMARK  217  A    between atoms: _535  and  _536
REMARK  218  A    between atoms: _535  and  _538
REMARK  219  A    between atoms: _538  and  _539
REMARK  220  A    between atoms: _542  and  _544
REMARK  221  A    between atoms: _544  and  _545
REMARK  222  A    between atoms: _547  and  _549
REMARK  223  A    between atoms: _549  and  _550
REMARK  224  A    between atoms: _549  and  _552
REMARK  225  A    between atoms: _552  and  _553
REMARK  226  A    between atoms: _553  and  _554
REMARK  227  A    between atoms: _554  and  _555
REMARK  228  A    between atoms: _564  and  _566
REMARK  229  A    between atoms: _566  and  _567
REMARK  230  A    between atoms: _566  and  _569
REMARK  231  A    between atoms: _569  and  _570
REMARK                            x       y       z     vdW  Elec       q    Type
REMARK                         _______ _______ _______ _____ _____    ______ ____
ROOT
ATOM      1  CA  ILE A   6      12.068   1.875  13.871  0.00  0.00    +0.149 C 
ENDROOT
BRANCH   1   2
ATOM      2  C   ILE A   6      11.543   1.455  12.509  0.00  0.00    +0.241 C 
ATOM      3  O   ILE A   6      10.869   0.424  12.377  0.00  0.00    -0.273 OA
ATOM      4  N   ILE A   7      11.877   2.250  11.500  0.00  0.00    -0.297 N 
ATOM      5  H   ILE A   7      12.380   3.138  11.699  0.00  0.00    +0.150 HD
BRANCH   4   6
ATOM      6  CA  ILE A   7      11.558   1.911  10.125  0.00  0.00    +0.149 C 
BRANCH   6   7
ATOM      7  C   ILE A   7      12.773   1.251   9.490  0.00  0.00    +0.241 C 
ATOM      8  O   ILE A   7      13.810   1.875   9.275  0.00  0.00    -0.273 OA
ATOM      9  N   GLY A   8      12.606  -0.023   9.167  0.00  0.00    -0.295 N 
ATOM     10  H   GLY A   8      11.660  -0.444   9.266  0.00  0.00    +0.150 HD
BRANCH   9  11
ATOM     11  CA  GLY A   8      13.698  -0.857   8.678  0.00  0.00    +0.176 C 
BRANCH  11  12
ATOM     12  C   GLY A   8      13.644  -0.976   7.175  0.00  0.00    +0.243 C 
ATOM     13  N   ARG A   9      14.562  -1.764   6.636  0.00  0.00    -0.297 N 
ATOM     14  H   ARG A   9      15.143  -2.365   7.254  0.00  0.00    +0.150 HD
ATOM     15  O   GLY A   8      12.784  -0.373   6.517  0.00  0.00    -0.273 OA
BRANCH  13  16
ATOM     16  CA  ARG A   9      14.774  -1.806   5.204  0.00  0.00    +0.149 C 
BRANCH  16  17
ATOM     17  C   ARG A   9      13.564  -2.314   4.416  0.00  0.00    +0.241 C 
ATOM     18  N   ASN A  10      12.775  -3.192   5.019  0.00  0.00    -0.298 N 
ATOM     19  H   ASN A  10      12.996  -3.512   5.983  0.00  0.00    +0.150 HD
ATOM     20  O   ARG A   9      13.347  -1.913   3.272  0.00  0.00    -0.273 OA
BRANCH  18  21
ATOM     21  CA  ASN A  10      11.595  -3.711   4.331  0.00  0.00    +0.146 C 
BRANCH  21  22
ATOM     22  C   ASN A  10      10.640  -2.594   3.848  0.00  0.00    +0.227 C 
ATOM     23  O   ASN A  10       9.999  -2.716   2.803  0.00  0.00    -0.286 OA
ENDBRANCH  21  22
BRANCH  21  24
ATOM     24  CB  ASN A  10      10.880  -4.722   5.237  0.00  0.00    +0.112 C 
BRANCH  24  25
ATOM     25  CG  ASN A  10      10.150  -4.067   6.399  0.00  0.00    +0.222 C 
ATOM     26  OD1 ASN A  10      10.727  -3.276   7.158  0.00  0.00    -0.275 OA
ATOM     27  ND2 ASN A  10       8.862  -4.403   6.553  0.00  0.00    -0.329 N 
ATOM     28 HD21 ASN A  10       8.308  -3.995   7.333  0.00  0.00    +0.145 HD
ATOM     29 HD22 ASN A  10       8.416  -5.071   5.892  0.00  0.00    +0.145 HD
ENDBRANCH  24  25
ENDBRANCH  21  24
ENDBRANCH  18  21
ENDBRANCH  16  17
BRANCH  16  30
ATOM     30  CB  ARG A   9      16.033  -2.616   4.880  0.00  0.00    +0.033 C 
BRANCH  30  31
ATOM     31  CG  ARG A   9      17.333  -1.829   5.166  0.00  0.00    +0.045 C 
BRANCH  31  32
ATOM     32  CD  ARG A   9      18.573  -2.579   4.639  0.00  0.00    +0.174 C 
BRANCH  32  33
ATOM     33  NE  ARG A   9      18.638  -3.915   5.223  0.00  0.00    -0.265 N 
ATOM     34  HE  ARG A   9      19.010  -4.010   6.190  0.00  0.00    +0.259 HD
ATOM     35  CZ  ARG A   9      18.248  -5.021   4.589  0.00  0.00    +0.342 C 
ATOM     36  NH2 ARG A   9      18.307  -6.197   5.200  0.00  0.00    -0.292 N 
ATOM     37 HH21 ARG A   9      18.658  -6.258   6.177  0.00  0.00    +0.255 HD
ATOM     38 HH22 ARG A   9      18.002  -7.058   4.702  0.00  0.00    +0.255 HD
ATOM     39  NH1 ARG A   9      17.797  -4.958   3.350  0.00  0.00    -0.292 N 
ATOM     40 HH11 ARG A   9      17.744  -4.041   2.862  0.00  0.00    +0.255 HD
ATOM     41 HH12 ARG A   9      17.495  -5.825   2.862  0.00  0.00    +0.255 HD
ENDBRANCH  32  33
ENDBRANCH  31  32
ENDBRANCH  30  31
ENDBRANCH  16  30
ENDBRANCH  13  16
ENDBRANCH  11  12
ENDBRANCH   9  11
ENDBRANCH   6   7
BRANCH   6  42
ATOM     42  CB  ILE A   7      11.160   3.147   9.303  0.00  0.00    +0.027 C 
ATOM     43  CG2 ILE A   7      10.730   2.717   7.930  0.00  0.00    +0.002 C 
BRANCH  42  44
ATOM     44  CG1 ILE A   7      10.021   3.914   9.989  0.00  0.00    +0.002 C 
ATOM     45  CD1 ILE A   7       8.845   2.978  10.361  0.00  0.00    +0.000 C 
ENDBRANCH  42  44
ENDBRANCH   6  42
ENDBRANCH   4   6
ENDBRANCH   1   2
BRANCH   1  48
ATOM     46  C   ASN A   5      10.768   3.097  15.545  0.00  0.00    +0.241 C 
ATOM     47  O   ASN A   5      11.363   4.167  15.349  0.00  0.00    -0.273 OA
ATOM     48  N   ILE A   6      10.992   1.988  14.852  0.00  0.00    -0.297 N 
ATOM     49  H   ILE A   6      10.376   1.166  15.014  0.00  0.00    +0.150 HD
BRANCH  46  50
ATOM     50  CA  ASN A   5       9.681   3.008  16.602  0.00  0.00    +0.158 C 
BRANCH  50  53
ATOM     51  C   VAL A   4      11.036   2.813  18.593  0.00  0.00    +0.241 C 
ATOM     52  O   VAL A   4      11.245   1.619  18.365  0.00  0.00    -0.273 OA
ATOM     53  N   ASN A   5      10.211   3.547  17.855  0.00  0.00    -0.297 N 
ATOM     54  H   ASN A   5       9.942   4.502  18.167  0.00  0.00    +0.150 HD
BRANCH  51  55
ATOM     55  CA  VAL A   4      11.762   3.508  19.751  0.00  0.00    +0.149 C 
BRANCH  55  58
ATOM     56  C   PRO A   3      11.739   2.984  22.133  0.00  0.00    +0.241 C 
ATOM     57  O   PRO A   3      11.398   4.130  22.440  0.00  0.00    -0.273 OA
ATOM     58  N   VAL A   4      11.895   2.581  20.876  0.00  0.00    -0.297 N 
ATOM     59  H   VAL A   4      12.117   1.583  20.687  0.00  0.00    +0.150 HD
BRANCH  56  62
ATOM     60  C   SER A   2      11.017  -0.063  22.418  0.00  0.00    +0.246 C 
ATOM     61  N   PRO A   3      12.129   0.582  22.790  0.00  0.00    -0.272 N 
ATOM     62  CA  PRO A   3      12.029   1.970  23.227  0.00  0.00    +0.152 C 
ATOM     63  CB  PRO A   3      13.414   2.249  23.819  0.00  0.00    +0.031 C 
ATOM     64  CG  PRO A   3      14.312   1.300  23.171  0.00  0.00    +0.024 C 
ATOM     65  CD  PRO A   3      13.509   0.072  22.855  0.00  0.00    +0.094 C 
ATOM     66  O   SER A   2       9.915   0.447  22.531  0.00  0.00    -0.273 OA
BRANCH  60  67
ATOM     67  CA  SER A   2      11.155  -1.463  21.840  0.00  0.00    +0.178 C 
BRANCH  67  70
ATOM     68  C   PRO A   1      10.026  -2.917  23.440  0.00  0.00    +0.239 C 
ATOM     69  O   PRO A   1      11.024  -2.971  24.154  0.00  0.00    -0.274 OA
ATOM     70  N   SER A   2      10.012  -2.269  22.277  0.00  0.00    -0.295 N 
ATOM     71  H   SER A   2       9.173  -2.336  21.666  0.00  0.00    +0.150 HD
BRANCH  68  73
ATOM     72  N   PRO A   1       8.213  -4.579  22.936  0.00  0.00    -0.210 NA
ATOM     73  CA  PRO A   1       8.735  -3.611  23.893  0.00  0.00    +0.149 C 
ATOM     74  CB  PRO A   1       9.006  -4.462  25.128  0.00  0.00    +0.028 C 
ATOM     75  CG  PRO A   1       9.297  -5.829  24.601  0.00  0.00    +0.021 C 
ATOM     76  CD  PRO A   1       8.542  -5.968  23.311  0.00  0.00    +0.089 C 
ENDBRANCH  68  73
ENDBRANCH  67  70
BRANCH  67  77
ATOM     77  CB  SER A   2      11.182  -1.413  20.310  0.00  0.00    +0.166 C 
BRANCH  77  78
ATOM     78  OG  SER A   2      12.206  -0.566  19.808  0.00  0.00    -0.380 OA
ATOM     79  H   SER A   2      12.063   0.356  20.140  0.00  0.00    +0.211 HD
ENDBRANCH  77  78
ENDBRANCH  67  77
ENDBRANCH  60  67
ENDBRANCH  56  62
ENDBRANCH  55  58
BRANCH  55  80
ATOM     80  CB  VAL A   4      13.150   3.904  19.209  0.00  0.00    +0.027 C 
ATOM     81  CG2 VAL A   4      14.027   4.403  20.329  0.00  0.00    +0.002 C 
ATOM     82  CG1 VAL A   4      12.989   4.971  18.128  0.00  0.00    +0.002 C 
ENDBRANCH  55  80
ENDBRANCH  51  55
ENDBRANCH  50  53
BRANCH  50  83
ATOM     83  CB  ASN A   5       8.457   3.777  16.125  0.00  0.00    +0.114 C 
BRANCH  83  84
ATOM     84  CG  ASN A   5       7.334   3.787  17.137  0.00  0.00    +0.222 C 
ATOM     85  OD1 ASN A   5       6.862   2.736  17.558  0.00  0.00    -0.275 OA
ATOM     86  ND2 ASN A   5       6.885   4.984  17.514  0.00  0.00    -0.329 N 
ATOM     87 HD21 ASN A   5       6.101   5.055  18.194  0.00  0.00    +0.145 HD
ATOM     88 HD22 ASN A   5       7.319   5.847  17.128  0.00  0.00    +0.145 HD
ENDBRANCH  83  84
ENDBRANCH  50  83
ENDBRANCH  46  50
ENDBRANCH   1  48
BRANCH   1  89
ATOM     89  CB  ILE A   6      13.089   0.802  14.286  0.00  0.00    +0.027 C 
ATOM     90  CG2 ILE A   6      14.071   0.547  13.164  0.00  0.00    +0.002 C 
BRANCH  89  91
ATOM     91  CG1 ILE A   6      13.848   1.238  15.535  0.00  0.00    +0.002 C 
ATOM     92  CD1 ILE A   6      14.467   0.092  16.267  0.00  0.00    +0.000 C 
ENDBRANCH  89  91
ENDBRANCH   1  89
TORSDOF 33
REMARK  Name = ../refined-set-2016/2fgu/2fgu_pocket.pdb
REMARK  231 active torsions:
REMARK  status: ('A' for Active; 'I' for Inactive)
REMARK    1  A    between atoms: _1  and  _3
REMARK    2  A    between atoms: _3  and  _4
REMARK    3  A    between atoms: _3  and  _6
REMARK    4  A    between atoms: _6  and  _7
REMARK    5  A    between atoms: _7  and  _8
REMARK    6  A    between atoms: _8  and  _9
REMARK    7  A    between atoms: _18  and  _20
REMARK    8  A    between atoms: _20  and  _21
REMARK    9  A    between atoms: _20  and  _23
REMARK   10  A    between atoms: _23  and  _24
REMARK   11  A    between atoms: _27  and  _29
REMARK   12  A    between atoms: _29  and  _30
REMARK   13  A    between atoms: _29  and  _32
REMARK   14  A    between atoms: _32  and  _33
REMARK   15  A    between atoms: _36  and  _38
REMARK   16  A    between atoms: _38  and  _39
REMARK   17  A    between atoms: _38  and  _41
REMARK   18  A    between atoms: _41  and  _42
REMARK   19  A    between atoms: _45  and  _47
REMARK   20  A    between atoms: _47  and  _48
REMARK   21  A    between atoms: _47  and  _50
REMARK   22  A    between atoms: _50  and  _51
REMARK   23  A    between atoms: _54  and  _56
REMARK   24  A    between atoms: _56  and  _57
REMARK   25  A    between atoms: _59  and  _61
REMARK   26  A    between atoms: _61  and  _62
REMARK   27  A    between atoms: _65  and  _67
REMARK   28  A    between atoms: _67  and  _68
REMARK   29  A    between atoms: _67  and  _70
REMARK   30  A    between atoms: _70  and  _71
REMARK   31  A    between atoms: _74  and  _76
REMARK   32  A    between atoms: _76  and  _77
REMARK   33  A    between atoms: _76  and  _79
REMARK   34  A    between atoms: _79  and  _80
REMARK   35  A    between atoms: _83  and  _85
REMARK   36  A    between atoms: _85  and  _86
REMARK   37  A    between atoms: _85  and  _88
REMARK   38  A    between atoms: _88  and  _89
REMARK   39  A    between atoms: _92  and  _94
REMARK   40  A    between atoms: _94  and  _95
REMARK   41  A    between atoms: _94  and  _97
REMARK   42  A    between atoms: _100  and  _102
REMARK   43  A    between atoms: _102  and  _103
REMARK   44  A    between atoms: _102  and  _105
REMARK   45  A    between atoms: _105  and  _106
REMARK   46  A    between atoms: _106  and  _107
REMARK   47  A    between atoms: _107  and  _108
REMARK   48  A    between atoms: _108  and  _109
REMARK   49  A    between atoms: _113  and  _115
REMARK   50  A    between atoms: _115  and  _116
REMARK   51  A    between atoms: _115  and  _118
REMARK   52  A    between atoms: _118  and  _119
REMARK   53  A    between atoms: _119  and  _120
REMARK   54  A    between atoms: _122  and  _124
REMARK   55  A    between atoms: _124  and  _125
REMARK   56  A    between atoms: _124  and  _127
REMARK   57  A    between atoms: _127  and  _128
REMARK   58  A    between atoms: _131  and  _133
REMARK   59  A    between atoms: _133  and  _134
REMARK   60  A    between atoms: _136  and  _138
REMARK   61  A    between atoms: _138  and  _139
REMARK   62  A    between atoms: _141  and  _143
REMARK   63  A    between atoms: _143  and  _144
REMARK   64  A    between atoms: _143  and  _146
REMARK   65  A    between atoms: _146  and  _147
REMARK   66  A    between atoms: _150  and  _152
REMARK   67  A    between atoms: _152  and  _153
REMARK   68  A    between atoms: _155  and  _157
REMARK   69  A    between atoms: _157  and  _158
REMARK   70  A    between atoms: _160  and  _162
REMARK   71  A    between atoms: _162  and  _163
REMARK   72  A    between atoms: _162  and  _165
REMARK   73  A    between atoms: _165  and  _166
REMARK   74  A    between atoms: _172  and  _174
REMARK   75  A    between atoms: _174  and  _175
REMARK   76  A    between atoms: _174  and  _177
REMARK   77  A    between atoms: _177  and  _178
REMARK   78  A    between atoms: _181  and  _183
REMARK   79  A    between atoms: _183  and  _184
REMARK   80  A    between atoms: _183  and  _186
REMARK   81  A    between atoms: _189  and  _191
REMARK   82  A    between atoms: _191  and  _192
REMARK   83  A    between atoms: _191  and  _194
REMARK   84  A    between atoms: _194  and  _195
REMARK   85  A    between atoms: _199  and  _200
REMARK   86  A    between atoms: _205  and  _207
REMARK   87  A    between atoms: _207  and  _208
REMARK   88  A    between atoms: _207  and  _210
REMARK   89  A    between atoms: _210  and  _211
REMARK   90  A    between atoms: _214  and  _215
REMARK   91  A    between atoms: _220  and  _222
REMARK   92  A    between atoms: _222  and  _223
REMARK   93  A    between atoms: _222  and  _225
REMARK   94  A    between atoms: _228  and  _230
REMARK   95  A    between atoms: _230  and  _231
REMARK   96  A    between atoms: _230  and  _233
REMARK   97  A    between atoms: _233  and  _234
REMARK   98  A    between atoms: _239  and  _241
REMARK   99  A    between atoms: _241  and  _242
REMARK  100  A    between atoms: _241  and  _244
REMARK  101  A    between atoms: _244  and  _245
REMARK  102  A    between atoms: _248  and  _250
REMARK  103  A    between atoms: _250  and  _251
REMARK  104  A    between atoms: _250  and  _253
REMARK  105  A    between atoms: _253  and  _254
REMARK  106  A    between atoms: _257  and  _259
REMARK  107  A    between atoms: _259  and  _260
REMARK  108  A    between atoms: _262  and  _264
REMARK  109  A    between atoms: _264  and  _265
REMARK  110  A    between atoms: _264  and  _267
REMARK  111  A    between atoms: _267  and  _268
REMARK  112  A    between atoms: _268  and  _269
REMARK  113  A    between atoms: _269  and  _270
REMARK  114  A    between atoms: _279  and  _281
REMARK  115  A    between atoms: _281  and  _282
REMARK  116  A    between atoms: _281  and  _284
REMARK  117  A    between atoms: _284  and  _285
REMARK  118  A    between atoms: _290  and  _292
REMARK  119  A    between atoms: _292  and  _293
REMARK  120  A    between atoms: _292  and  _295
REMARK  121  A    between atoms: _295  and  _296
REMARK  122  A    between atoms: _296  and  _297
REMARK  123  A    between atoms: _297  and  _298
REMARK  124  A    between atoms: _307  and  _309
REMARK  125  A    between atoms: _309  and  _310
REMARK  126  A    between atoms: _309  and  _312
REMARK  127  A    between atoms: _312  and  _313
REMARK  128  A    between atoms: _316  and  _318
REMARK  129  A    between atoms: _318  and  _319
REMARK  130  A    between atoms: _318  and  _321
REMARK  131  A    between atoms: _321  and  _322
REMARK  132  A    between atoms: _325  and  _327
REMARK  133  A    between atoms: _327  and  _328
REMARK  134  A    between atoms: _327  and  _330
REMARK  135  A    between atoms: _330  and  _331
REMARK  136  A    between atoms: _334  and  _336
REMARK  137  A    between atoms: _336  and  _337
REMARK  138  A    between atoms: _336  and  _339
REMARK  139  A    between atoms: _339  and  _340
REMARK  140  A    between atoms: _343  and  _345
REMARK  141  A    between atoms: _345  and  _346
REMARK  142  A    between atoms: _348  and  _350
REMARK  143  A    between atoms: _350  and  _351
REMARK  144  A    between atoms: _354  and  _356
REMARK  145  A    between atoms: _356  and  _357
REMARK  146  A    between atoms: _356  and  _359
REMARK  147  A    between atoms: _359  and  _360
REMARK  148  A    between atoms: _363  and  _365
REMARK  149  A    between atoms: _365  and  _366
REMARK  150  A    between atoms: _365  and  _368
REMARK  151  A    between atoms: _368  and  _369
REMARK  152  A    between atoms: _372  and  _374
REMARK  153  A    between atoms: _374  and  _375
REMARK  154  A    between atoms: _374  and  _377
REMARK  155  A    between atoms: _377  and  _378
REMARK  156  A    between atoms: _381  and  _383
REMARK  157  A    between atoms: _383  and  _384
REMARK  158  A    between atoms: _383  and  _386
REMARK  159  A    between atoms: _389  and  _391
REMARK  160  A    between atoms: _391  and  _392
REMARK  161  A    between atoms: _391  and  _394
REMARK  162  A    between atoms: _394  and  _395
REMARK  163  A    between atoms: _398  and  _400
REMARK  164  A    between atoms: _400  and  _401
REMARK  165  A    between atoms: _400  and  _403
REMARK  166  A    between atoms: _403  and  _404
REMARK  167  A    between atoms: _404  and  _405
REMARK  168  A    between atoms: _407  and  _409
REMARK  169  A    between atoms: _409  and  _410
REMARK  170  A    between atoms: _409  and  _412
REMARK  171  A    between atoms: _412  and  _413
REMARK  172  A    between atoms: _416  and  _418
REMARK  173  A    between atoms: _418  and  _419
REMARK  174  A    between atoms: _421  and  _423
REMARK  175  A    between atoms: _423  and  _424
REMARK  176  A    between atoms: _426  and  _428
REMARK  177  A    between atoms: _428  and  _429
REMARK  178  A    between atoms: _428  and  _431
REMARK  179  A    between atoms: _431  and  _432
REMARK  180  A    between atoms: _435  and  _437
REMARK  181  A    between atoms: _437  and  _438
REMARK  182  A    between atoms: _440  and  _442
REMARK  183  A    between atoms: _442  and  _443
REMARK  184  A    between atoms: _445  and  _447
REMARK  185  A    between atoms: _447  and  _448
REMARK  186  A    between atoms: _447  and  _450
REMARK  187  A    between atoms: _450  and  _451
REMARK  188  A    between atoms: _457  and  _459
REMARK  189  A    between atoms: _459  and  _460
REMARK  190  A    between atoms: _459  and  _462
REMARK  191  A    between atoms: _462  and  _463
REMARK  192  A    between atoms: _466  and  _468
REMARK  193  A    between atoms: _468  and  _469
REMARK  194  A    between atoms: _468  and  _471
REMARK  195  A    between atoms: _474  and  _476
REMARK  196  A    between atoms: _476  and  _477
REMARK  197  A    between atoms: _476  and  _479
REMARK  198  A    between atoms: _479  and  _480
REMARK  199  A    between atoms: _484  and  _485
REMARK  200  A    between atoms: _490  and  _492
REMARK  201  A    between atoms: _492  and  _493
REMARK  202  A    between atoms: _492  and  _495
REMARK  203  A    between atoms: _495  and  _496
REMARK  204  A    between atoms: _499  and  _500
REMARK  205  A    between atoms: _505  and  _507
REMARK  206  A    between atoms: _507  and  _508
REMARK  207  A    between atoms: _507  and  _510
REMARK  208  A    between atoms: _513  and  _515
REMARK  209  A    between atoms: _515  and  _516
REMARK  210  A    between atoms: _515  and  _518
REMARK  211  A    between atoms: _518  and  _519
REMARK  212  A    between atoms: _524  and  _526
REMARK  213  A    between atoms: _526  and  _527
REMARK  214  A    between atoms: _526  and  _529
REMARK  215  A    between atoms: _529  and  _530
REMARK  216  A    between atoms: _533  and  _535
REMARK  217  A    between atoms: _535  and  _536
REMARK  218  A    between atoms: _535  and  _538
REMARK  219  A    between atoms: _538  and  _539
REMARK  220  A    between atoms: _542  and  _544
REMARK  221  A    between atoms: _544  and  _545
REMARK  222  A    between atoms: _547  and  _549
REMARK  223  A    between atoms: _549  and  _550
REMARK  224  A    between atoms: _549  and  _552
REMARK  225  A    between atoms: _552  and  _553
REMARK  226  A    between atoms: _553  and  _554
REMARK  227  A    between atoms: _554  and  _555
REMARK  228  A    between atoms: _564  and  _566
REMARK  229  A    between atoms: _566  and  _567
REMARK  230  A    between atoms: _566  and  _569
REMARK  231  A    between atoms: _569  and  _570
REMARK                            x       y       z     vdW  Elec       q    Type
REMARK                         _______ _______ _______ _____ _____    ______ ____
ROOT
ATOM      1  NE  ARG A   1      21.378  -8.046   7.618  0.00  0.00    -0.265 N 
ATOM      2  CZ  ARG A   1      21.508  -9.298   8.049  0.00  0.00    +0.342 C 
ATOM      3  NH2 ARG A   1      20.529  -9.866   8.741  0.00  0.00    -0.292 N 
ATOM      4 HH21 ARG A   1      20.630 -10.845   9.078  0.00  0.00    +0.255 HD
ATOM      5 HH22 ARG A   1      19.660  -9.333   8.946  0.00  0.00    +0.255 HD
ATOM      6  NH1 ARG A   1      22.625  -9.978   7.792  0.00  0.00    -0.292 N 
ATOM      7 HH11 ARG A   1      22.727 -10.957   8.129  0.00  0.00    +0.255 HD
ATOM      8 HH12 ARG A   1      23.395  -9.530   7.255  0.00  0.00    +0.255 HD
ATOM      9  HE  ARG A   1      20.499  -7.539   7.845  0.00  0.00    +0.259 HD
ENDROOT
BRANCH   1  10
ATOM     10  CD  ARG A   1      22.400  -7.339   6.842  0.00  0.00    +0.174 C 
BRANCH  10  11
ATOM     11  CG  ARG A   1      21.771  -6.320   5.915  0.00  0.00    +0.045 C 
BRANCH  11  12
ATOM     12  CB  ARG A   1      22.805  -5.691   5.007  0.00  0.00    +0.029 C 
BRANCH  12  13
ATOM     13  CA  ARG A   1      22.207  -4.680   4.035  0.00  0.00    +0.133 C 
BRANCH  13  14
ATOM     14  N   ARG A   1      21.436  -5.381   3.023  0.00  0.00    -0.239 NA
ATOM     15  H   ARG A   1      21.297  -6.407   3.118  0.00  0.00    +0.142 HD
ENDBRANCH  13  14
BRANCH  13  16
ATOM     16  C   ARG A   1      23.322  -3.799   3.449  0.00  0.00    +0.224 C 
ATOM     17  O   ARG A   1      24.118  -4.263   2.622  0.00  0.00    -0.287 OA
ENDBRANCH  13  16
ENDBRANCH  12  13
ENDBRANCH  11  12
ENDBRANCH  10  11
ENDBRANCH   1  10
TORSDOF 6
REMARK  Name = ../refined-set-2016/2fgu/2fgu_pocket.pdb
REMARK  231 active torsions:
REMARK  status: ('A' for Active; 'I' for Inactive)
REMARK    1  A    between atoms: _1  and  _3
REMARK    2  A    between atoms: _3  and  _4
REMARK    3  A    between atoms: _3  and  _6
REMARK    4  A    between atoms: _6  and  _7
REMARK    5  A    between atoms: _7  and  _8
REMARK    6  A    between atoms: _8  and  _9
REMARK    7  A    between atoms: _18  and  _20
REMARK    8  A    between atoms: _20  and  _21
REMARK    9  A    between atoms: _20  and  _23
REMARK   10  A    between atoms: _23  and  _24
REMARK   11  A    between atoms: _27  and  _29
REMARK   12  A    between atoms: _29  and  _30
REMARK   13  A    between atoms: _29  and  _32
REMARK   14  A    between atoms: _32  and  _33
REMARK   15  A    between atoms: _36  and  _38
REMARK   16  A    between atoms: _38  and  _39
REMARK   17  A    between atoms: _38  and  _41
REMARK   18  A    between atoms: _41  and  _42
REMARK   19  A    between atoms: _45  and  _47
REMARK   20  A    between atoms: _47  and  _48
REMARK   21  A    between atoms: _47  and  _50
REMARK   22  A    between atoms: _50  and  _51
REMARK   23  A    between atoms: _54  and  _56
REMARK   24  A    between atoms: _56  and  _57
REMARK   25  A    between atoms: _59  and  _61
REMARK   26  A    between atoms: _61  and  _62
REMARK   27  A    between atoms: _65  and  _67
REMARK   28  A    between atoms: _67  and  _68
REMARK   29  A    between atoms: _67  and  _70
REMARK   30  A    between atoms: _70  and  _71
REMARK   31  A    between atoms: _74  and  _76
REMARK   32  A    between atoms: _76  and  _77
REMARK   33  A    between atoms: _76  and  _79
REMARK   34  A    between atoms: _79  and  _80
REMARK   35  A    between atoms: _83  and  _85
REMARK   36  A    between atoms: _85  and  _86
REMARK   37  A    between atoms: _85  and  _88
REMARK   38  A    between atoms: _88  and  _89
REMARK   39  A    between atoms: _92  and  _94
REMARK   40  A    between atoms: _94  and  _95
REMARK   41  A    between atoms: _94  and  _97
REMARK   42  A    between atoms: _100  and  _102
REMARK   43  A    between atoms: _102  and  _103
REMARK   44  A    between atoms: _102  and  _105
REMARK   45  A    between atoms: _105  and  _106
REMARK   46  A    between atoms: _106  and  _107
REMARK   47  A    between atoms: _107  and  _108
REMARK   48  A    between atoms: _108  and  _109
REMARK   49  A    between atoms: _113  and  _115
REMARK   50  A    between atoms: _115  and  _116
REMARK   51  A    between atoms: _115  and  _118
REMARK   52  A    between atoms: _118  and  _119
REMARK   53  A    between atoms: _119  and  _120
REMARK   54  A    between atoms: _122  and  _124
REMARK   55  A    between atoms: _124  and  _125
REMARK   56  A    between atoms: _124  and  _127
REMARK   57  A    between atoms: _127  and  _128
REMARK   58  A    between atoms: _131  and  _133
REMARK   59  A    between atoms: _133  and  _134
REMARK   60  A    between atoms: _136  and  _138
REMARK   61  A    between atoms: _138  and  _139
REMARK   62  A    between atoms: _141  and  _143
REMARK   63  A    between atoms: _143  and  _144
REMARK   64  A    between atoms: _143  and  _146
REMARK   65  A    between atoms: _146  and  _147
REMARK   66  A    between atoms: _150  and  _152
REMARK   67  A    between atoms: _152  and  _153
REMARK   68  A    between atoms: _155  and  _157
REMARK   69  A    between atoms: _157  and  _158
REMARK   70  A    between atoms: _160  and  _162
REMARK   71  A    between atoms: _162  and  _163
REMARK   72  A    between atoms: _162  and  _165
REMARK   73  A    between atoms: _165  and  _166
REMARK   74  A    between atoms: _172  and  _174
REMARK   75  A    between atoms: _174  and  _175
REMARK   76  A    between atoms: _174  and  _177
REMARK   77  A    between atoms: _177  and  _178
REMARK   78  A    between atoms: _181  and  _183
REMARK   79  A    between atoms: _183  and  _184
REMARK   80  A    between atoms: _183  and  _186
REMARK   81  A    between atoms: _189  and  _191
REMARK   82  A    between atoms: _191  and  _192
REMARK   83  A    between atoms: _191  and  _194
REMARK   84  A    between atoms: _194  and  _195
REMARK   85  A    between atoms: _199  and  _200
REMARK   86  A    between atoms: _205  and  _207
REMARK   87  A    between atoms: _207  and  _208
REMARK   88  A    between atoms: _207  and  _210
REMARK   89  A    between atoms: _210  and  _211
REMARK   90  A    between atoms: _214  and  _215
REMARK   91  A    between atoms: _220  and  _222
REMARK   92  A    between atoms: _222  and  _223
REMARK   93  A    between atoms: _222  and  _225
REMARK   94  A    between atoms: _228  and  _230
REMARK   95  A    between atoms: _230  and  _231
REMARK   96  A    between atoms: _230  and  _233
REMARK   97  A    between atoms: _233  and  _234
REMARK   98  A    between atoms: _239  and  _241
REMARK   99  A    between atoms: _241  and  _242
REMARK  100  A    between atoms: _241  and  _244
REMARK  101  A    between atoms: _244  and  _245
REMARK  102  A    between atoms: _248  and  _250
REMARK  103  A    between atoms: _250  and  _251
REMARK  104  A    between atoms: _250  and  _253
REMARK  105  A    between atoms: _253  and  _254
REMARK  106  A    between atoms: _257  and  _259
REMARK  107  A    between atoms: _259  and  _260
REMARK  108  A    between atoms: _262  and  _264
REMARK  109  A    between atoms: _264  and  _265
REMARK  110  A    between atoms: _264  and  _267
REMARK  111  A    between atoms: _267  and  _268
REMARK  112  A    between atoms: _268  and  _269
REMARK  113  A    between atoms: _269  and  _270
REMARK  114  A    between atoms: _279  and  _281
REMARK  115  A    between atoms: _281  and  _282
REMARK  116  A    between atoms: _281  and  _284
REMARK  117  A    between atoms: _284  and  _285
REMARK  118  A    between atoms: _290  and  _292
REMARK  119  A    between atoms: _292  and  _293
REMARK  120  A    between atoms: _292  and  _295
REMARK  121  A    between atoms: _295  and  _296
REMARK  122  A    between atoms: _296  and  _297
REMARK  123  A    between atoms: _297  and  _298
REMARK  124  A    between atoms: _307  and  _309
REMARK  125  A    between atoms: _309  and  _310
REMARK  126  A    between atoms: _309  and  _312
REMARK  127  A    between atoms: _312  and  _313
REMARK  128  A    between atoms: _316  and  _318
REMARK  129  A    between atoms: _318  and  _319
REMARK  130  A    between atoms: _318  and  _321
REMARK  131  A    between atoms: _321  and  _322
REMARK  132  A    between atoms: _325  and  _327
REMARK  133  A    between atoms: _327  and  _328
REMARK  134  A    between atoms: _327  and  _330
REMARK  135  A    between atoms: _330  and  _331
REMARK  136  A    between atoms: _334  and  _336
REMARK  137  A    between atoms: _336  and  _337
REMARK  138  A    between atoms: _336  and  _339
REMARK  139  A    between atoms: _339  and  _340
REMARK  140  A    between atoms: _343  and  _345
REMARK  141  A    between atoms: _345  and  _346
REMARK  142  A    between atoms: _348  and  _350
REMARK  143  A    between atoms: _350  and  _351
REMARK  144  A    between atoms: _354  and  _356
REMARK  145  A    between atoms: _356  and  _357
REMARK  146  A    between atoms: _356  and  _359
REMARK  147  A    between atoms: _359  and  _360
REMARK  148  A    between atoms: _363  and  _365
REMARK  149  A    between atoms: _365  and  _366
REMARK  150  A    between atoms: _365  and  _368
REMARK  151  A    between atoms: _368  and  _369
REMARK  152  A    between atoms: _372  and  _374
REMARK  153  A    between atoms: _374  and  _375
REMARK  154  A    between atoms: _374  and  _377
REMARK  155  A    between atoms: _377  and  _378
REMARK  156  A    between atoms: _381  and  _383
REMARK  157  A    between atoms: _383  and  _384
REMARK  158  A    between atoms: _383  and  _386
REMARK  159  A    between atoms: _389  and  _391
REMARK  160  A    between atoms: _391  and  _392
REMARK  161  A    between atoms: _391  and  _394
REMARK  162  A    between atoms: _394  and  _395
REMARK  163  A    between atoms: _398  and  _400
REMARK  164  A    between atoms: _400  and  _401
REMARK  165  A    between atoms: _400  and  _403
REMARK  166  A    between atoms: _403  and  _404
REMARK  167  A    between atoms: _404  and  _405
REMARK  168  A    between atoms: _407  and  _409
REMARK  169  A    between atoms: _409  and  _410
REMARK  170  A    between atoms: _409  and  _412
REMARK  171  A    between atoms: _412  and  _413
REMARK  172  A    between atoms: _416  and  _418
REMARK  173  A    between atoms: _418  and  _419
REMARK  174  A    between atoms: _421  and  _423
REMARK  175  A    between atoms: _423  and  _424
REMARK  176  A    between atoms: _426  and  _428
REMARK  177  A    between atoms: _428  and  _429
REMARK  178  A    between atoms: _428  and  _431
REMARK  179  A    between atoms: _431  and  _432
REMARK  180  A    between atoms: _435  and  _437
REMARK  181  A    between atoms: _437  and  _438
REMARK  182  A    between atoms: _440  and  _442
REMARK  183  A    between atoms: _442  and  _443
REMARK  184  A    between atoms: _445  and  _447
REMARK  185  A    between atoms: _447  and  _448
REMARK  186  A    between atoms: _447  and  _450
REMARK  187  A    between atoms: _450  and  _451
REMARK  188  A    between atoms: _457  and  _459
REMARK  189  A    between atoms: _459  and  _460
REMARK  190  A    between atoms: _459  and  _462
REMARK  191  A    between atoms: _462  and  _463
REMARK  192  A    between atoms: _466  and  _468
REMARK  193  A    between atoms: _468  and  _469
REMARK  194  A    between atoms: _468  and  _471
REMARK  195  A    between atoms: _474  and  _476
REMARK  196  A    between atoms: _476  and  _477
REMARK  197  A    between atoms: _476  and  _479
REMARK  198  A    between atoms: _479  and  _480
REMARK  199  A    between atoms: _484  and  _485
REMARK  200  A    between atoms: _490  and  _492
REMARK  201  A    between atoms: _492  and  _493
REMARK  202  A    between atoms: _492  and  _495
REMARK  203  A    between atoms: _495  and  _496
REMARK  204  A    between atoms: _499  and  _500
REMARK  205  A    between atoms: _505  and  _507
REMARK  206  A    between atoms: _507  and  _508
REMARK  207  A    between atoms: _507  and  _510
REMARK  208  A    between atoms: _513  and  _515
REMARK  209  A    between atoms: _515  and  _516
REMARK  210  A    between atoms: _515  and  _518
REMARK  211  A    between atoms: _518  and  _519
REMARK  212  A    between atoms: _524  and  _526
REMARK  213  A    between atoms: _526  and  _527
REMARK  214  A    between atoms: _526  and  _529
REMARK  215  A    between atoms: _529  and  _530
REMARK  216  A    between atoms: _533  and  _535
REMARK  217  A    between atoms: _535  and  _536
REMARK  218  A    between atoms: _535  and  _538
REMARK  219  A    between atoms: _538  and  _539
REMARK  220  A    between atoms: _542  and  _544
REMARK  221  A    between atoms: _544  and  _545
REMARK  222  A    between atoms: _547  and  _549
REMARK  223  A    between atoms: _549  and  _550
REMARK  224  A    between atoms: _549  and  _552
REMARK  225  A    between atoms: _552  and  _553
REMARK  226  A    between atoms: _553  and  _554
REMARK  227  A    between atoms: _554  and  _555
REMARK  228  A    between atoms: _564  and  _566
REMARK  229  A    between atoms: _566  and  _567
REMARK  230  A    between atoms: _566  and  _569
REMARK  231  A    between atoms: _569  and  _570
REMARK                            x       y       z     vdW  Elec       q    Type
REMARK                         _______ _______ _______ _____ _____    ______ ____
ROOT
ATOM      1  C   ALA A   6      23.458   5.283  15.753  0.00  0.00    +0.241 C 
ATOM      2  N   ASP A   7      23.341   5.769  16.991  0.00  0.00    -0.297 N 
ATOM      3  H   ASP A   7      22.770   5.242  17.682  0.00  0.00    +0.150 HD
ATOM      4  O   ALA A   6      24.046   5.881  14.845  0.00  0.00    -0.273 OA
ENDROOT
BRANCH   1   5
ATOM      5  CA  ALA A   6      22.798   3.921  15.494  0.00  0.00    +0.149 C 
ATOM      6  CB  ALA A   6      23.835   2.857  15.232  0.00  0.00    +0.031 C 
BRANCH   5   9
ATOM      7  C   GLY A   5      20.575   4.085  14.593  0.00  0.00    +0.243 C 
ATOM      8  O   GLY A   5      20.128   4.205  15.730  0.00  0.00    -0.273 OA
ATOM      9  N   ALA A   6      21.876   3.974  14.379  0.00  0.00    -0.297 N 
ATOM     10  H   ALA A   6      22.238   3.925  13.405  0.00  0.00    +0.150 HD
BRANCH   7  11
ATOM     11  CA  GLY A   5      19.646   4.090  13.386  0.00  0.00    +0.176 C 
BRANCH  11  14
ATOM     12  C   THR A   4      20.716   5.494  11.680  0.00  0.00    +0.243 C 
ATOM     13  O   THR A   4      20.546   6.532  12.324  0.00  0.00    -0.273 OA
ATOM     14  N   GLY A   5      20.272   4.306  12.084  0.00  0.00    -0.295 N 
ATOM     15  H   GLY A   5      20.376   3.494  11.443  0.00  0.00    +0.150 HD
BRANCH  12  16
ATOM     16  CA  THR A   4      21.470   5.531  10.346  0.00  0.00    +0.176 C 
BRANCH  16  19
ATOM     17  C   ASP A   3      23.055   3.724  10.665  0.00  0.00    +0.241 C 
ATOM     18  O   ASP A   3      23.536   4.253  11.676  0.00  0.00    -0.273 OA
ATOM     19  N   THR A   4      22.052   4.251   9.973  0.00  0.00    -0.295 N 
ATOM     20  H   THR A   4      21.676   3.740   9.149  0.00  0.00    +0.150 HD
BRANCH  17  21
ATOM     21  CA  ASP A   3      23.565   2.395  10.140  0.00  0.00    +0.160 C 
BRANCH  21  23
ATOM     22  C   LEU A   2      24.746   1.989   8.057  0.00  0.00    +0.241 C 
ATOM     23  N   ASP A   3      24.742   2.488   9.287  0.00  0.00    -0.297 N 
ATOM     24  H   ASP A   3      25.597   2.955   9.649  0.00  0.00    +0.150 HD
ATOM     25  O   LEU A   2      23.711   1.682   7.463  0.00  0.00    -0.273 OA
BRANCH  22  26
ATOM     26  CA  LEU A   2      26.119   1.782   7.413  0.00  0.00    +0.149 C 
BRANCH  26  29
ATOM     27  C   LEU A   1      26.913  -0.285   8.418  0.00  0.00    +0.238 C 
ATOM     28  O   LEU A   1      27.188   0.281   9.481  0.00  0.00    -0.274 OA
ATOM     29  N   LEU A   2      26.421   0.354   7.363  0.00  0.00    -0.297 N 
ATOM     30  H   LEU A   2      26.247  -0.173   6.483  0.00  0.00    +0.150 HD
BRANCH  27  31
ATOM     31  CA  LEU A   1      27.101  -1.790   8.269  0.00  0.00    +0.145 C 
BRANCH  31  32
ATOM     32  N   LEU A   1      28.434  -2.173   8.701  0.00  0.00    -0.238 NA
ATOM     33  H   LEU A   1      28.628  -2.286   9.717  0.00  0.00    +0.142 HD
ENDBRANCH  31  32
BRANCH  31  34
ATOM     34  CB  LEU A   1      26.083  -2.537   9.137  0.00  0.00    +0.026 C 
BRANCH  34  35
ATOM     35  CG  LEU A   1      24.574  -2.369   8.990  0.00  0.00    +0.002 C 
ATOM     36  CD2 LEU A   1      23.895  -2.956  10.233  0.00  0.00    +0.000 C 
ATOM     37  CD1 LEU A   1      24.081  -3.097   7.747  0.00  0.00    +0.000 C 
ENDBRANCH  34  35
ENDBRANCH  31  34
ENDBRANCH  27  31
ENDBRANCH  26  29
BRANCH  26  38
ATOM     38  CB  LEU A   2      26.177   2.372   6.010  0.00  0.00    +0.029 C 
BRANCH  38  39
ATOM     39  CG  LEU A   2      27.551   2.305   5.326  0.00  0.00    +0.002 C 
ATOM     40  CD2 LEU A   2      28.611   2.994   6.162  0.00  0.00    +0.000 C 
ATOM     41  CD1 LEU A   2      27.462   2.916   3.937  0.00  0.00    +0.000 C 
ENDBRANCH  38  39
ENDBRANCH  26  38
ENDBRANCH  22  26
ENDBRANCH  21  23
BRANCH  21  42
ATOM     42  CB  ASP A   3      23.816   1.437  11.294  0.00  0.00    +0.143 C 
BRANCH  42  43
ATOM     43  CG  ASP A   3      22.552   1.191  12.138  0.00  0.00    +0.367 C 
ATOM     44  OD2 ASP A   3      22.709   0.435  13.100  0.00  0.00    -0.246 OA
ATOM     45  OD1 ASP A   3      21.461   1.744  11.848  0.00  0.00    -0.246 OA
ENDBRANCH  42  43
ENDBRANCH  21  42
ENDBRANCH  17  21
ENDBRANCH  16  19
BRANCH  16  46
ATOM     46  CB  THR A   4      20.547   6.092   9.242  0.00  0.00    +0.137 C 
ATOM     47  CG2 THR A   4      21.325   6.293   7.929  0.00  0.00    +0.034 C 
BRANCH  46  48
ATOM     48  OG1 THR A   4      19.447   5.203   9.031  0.00  0.00    -0.382 OA
ATOM     49  HG1 THR A   4      18.933   5.110   9.872  0.00  0.00    +0.210 HD
ENDBRANCH  46  48
ENDBRANCH  16  46
ENDBRANCH  12  16
ENDBRANCH  11  14
ENDBRANCH   7  11
ENDBRANCH   5   9
ENDBRANCH   1   5
BRANCH   2  50
ATOM     50  CA  ASP A   7      23.983   7.013  17.415  0.00  0.00    +0.160 C 
BRANCH  50  51
ATOM     51  C   ASP A   7      25.515   6.858  17.377  0.00  0.00    +0.241 C 
ATOM     52  N   ASP A   8      25.980   5.692  17.812  0.00  0.00    -0.297 N 
ATOM     53  H   ASP A   8      25.289   4.949  18.041  0.00  0.00    +0.150 HD
ATOM     54  O   ASP A   7      26.237   7.768  16.980  0.00  0.00    -0.273 OA
BRANCH  52  55
ATOM     55  CA  ASP A   8      27.391   5.386  17.989  0.00  0.00    +0.160 C 
BRANCH  55  56
ATOM     56  C   ASP A   8      27.895   4.322  17.010  0.00  0.00    +0.241 C 
ATOM     57  N   THR A   9      29.215   4.205  16.938  0.00  0.00    -0.295 N 
ATOM     58  H   THR A   9      29.799   4.844  17.514  0.00  0.00    +0.150 HD
ATOM     59  O   ASP A   8      27.127   3.621  16.365  0.00  0.00    -0.273 OA
BRANCH  57  60
ATOM     60  CA  THR A   9      29.881   3.235  16.101  0.00  0.00    +0.176 C 
BRANCH  60  61
ATOM     61  C   THR A   9      30.313   2.106  17.037  0.00  0.00    +0.243 C 
ATOM     62  O   THR A   9      30.993   2.316  18.040  0.00  0.00    -0.273 OA
ATOM     63  N   VAL A  10      29.874   0.893  16.716  0.00  0.00    -0.297 N 
ATOM     64  H   VAL A  10      29.336   0.759  15.836  0.00  0.00    +0.150 HD
BRANCH  63  65
ATOM     65  CA  VAL A  10      30.135  -0.245  17.574  0.00  0.00    +0.149 C 
BRANCH  65  66
ATOM     66  C   VAL A  10      30.771  -1.347  16.739  0.00  0.00    +0.241 C 
ATOM     67  N   LEU A  11      31.988  -1.740  17.097  0.00  0.00    -0.298 N 
ATOM     68  H   LEU A  11      32.454  -1.269  17.898  0.00  0.00    +0.150 HD
ATOM     69  O   VAL A  10      30.153  -1.855  15.818  0.00  0.00    -0.273 OA
BRANCH  67  70
ATOM     70  CA  LEU A  11      32.689  -2.808  16.404  0.00  0.00    +0.137 C 
BRANCH  70  71
ATOM     71  C   LEU A  11      32.745  -4.086  17.221  0.00  0.00    +0.227 C 
ATOM     72  O   LEU A  11      32.802  -4.044  18.448  0.00  0.00    -0.286 OA
ENDBRANCH  70  71
BRANCH  70  73
ATOM     73  CB  LEU A  11      34.112  -2.375  16.096  0.00  0.00    +0.028 C 
BRANCH  73  74
ATOM     74  CG  LEU A  11      34.289  -1.133  15.229  0.00  0.00    +0.002 C 
ATOM     75  CD2 LEU A  11      35.709  -1.133  14.687  0.00  0.00    +0.000 C 
ATOM     76  CD1 LEU A  11      33.316  -1.097  14.078  0.00  0.00    +0.000 C 
ENDBRANCH  73  74
ENDBRANCH  70  73
ENDBRANCH  67  70
ENDBRANCH  65  66
BRANCH  65  77
ATOM     77  CB  VAL A  10      28.848  -0.793  18.250  0.00  0.00    +0.027 C 
ATOM     78  CG2 VAL A  10      29.175  -1.982  19.162  0.00  0.00    +0.002 C 
ATOM     79  CG1 VAL A  10      28.161   0.278  19.081  0.00  0.00    +0.002 C 
ENDBRANCH  65  77
ENDBRANCH  63  65
ENDBRANCH  60  61
BRANCH  60  80
ATOM     80  CB  THR A   9      31.042   3.880  15.334  0.00  0.00    +0.137 C 
ATOM     81  CG2 THR A   9      31.935   2.836  14.677  0.00  0.00    +0.034 C 
BRANCH  80  82
ATOM     82  OG1 THR A   9      30.517   4.719  14.300  0.00  0.00    -0.382 OA
ATOM     83  HG1 THR A   9      29.953   5.425  14.704  0.00  0.00    +0.210 HD
ENDBRANCH  80  82
ENDBRANCH  60  80
ENDBRANCH  57  60
ENDBRANCH  55  56
BRANCH  55  84
ATOM     84  CB  ASP A   8      27.602   4.859  19.403  0.00  0.00    +0.143 C 
BRANCH  84  85
ATOM     85  CG  ASP A   8      27.123   5.840  20.453  0.00  0.00    +0.367 C 
ATOM     86  OD2 ASP A   8      26.303   5.442  21.293  0.00  0.00    -0.246 OA
ATOM     87  OD1 ASP A   8      27.551   7.008  20.421  0.00  0.00    -0.246 OA
ENDBRANCH  84  85
ENDBRANCH  55  84
ENDBRANCH  52  55
ENDBRANCH  50  51
BRANCH  50  88
ATOM     88  CB  ASP A   7      23.614   7.379  18.858  0.00  0.00    +0.143 C 
BRANCH  88  89
ATOM     89  CG  ASP A   7      22.125   7.595  19.082  0.00  0.00    +0.367 C 
ATOM     90  OD2 ASP A   7      21.692   7.484  20.246  0.00  0.00    -0.246 OA
ATOM     91  OD1 ASP A   7      21.371   7.872  18.136  0.00  0.00    -0.246 OA
ENDBRANCH  88  89
ENDBRANCH  50  88
ENDBRANCH   2  50
TORSDOF 39
REMARK  Name = ../refined-set-2016/2fgu/2fgu_pocket.pdb
REMARK  231 active torsions:
REMARK  status: ('A' for Active; 'I' for Inactive)
REMARK    1  A    between atoms: _1  and  _3
REMARK    2  A    between atoms: _3  and  _4
REMARK    3  A    between atoms: _3  and  _6
REMARK    4  A    between atoms: _6  and  _7
REMARK    5  A    between atoms: _7  and  _8
REMARK    6  A    between atoms: _8  and  _9
REMARK    7  A    between atoms: _18  and  _20
REMARK    8  A    between atoms: _20  and  _21
REMARK    9  A    between atoms: _20  and  _23
REMARK   10  A    between atoms: _23  and  _24
REMARK   11  A    between atoms: _27  and  _29
REMARK   12  A    between atoms: _29  and  _30
REMARK   13  A    between atoms: _29  and  _32
REMARK   14  A    between atoms: _32  and  _33
REMARK   15  A    between atoms: _36  and  _38
REMARK   16  A    between atoms: _38  and  _39
REMARK   17  A    between atoms: _38  and  _41
REMARK   18  A    between atoms: _41  and  _42
REMARK   19  A    between atoms: _45  and  _47
REMARK   20  A    between atoms: _47  and  _48
REMARK   21  A    between atoms: _47  and  _50
REMARK   22  A    between atoms: _50  and  _51
REMARK   23  A    between atoms: _54  and  _56
REMARK   24  A    between atoms: _56  and  _57
REMARK   25  A    between atoms: _59  and  _61
REMARK   26  A    between atoms: _61  and  _62
REMARK   27  A    between atoms: _65  and  _67
REMARK   28  A    between atoms: _67  and  _68
REMARK   29  A    between atoms: _67  and  _70
REMARK   30  A    between atoms: _70  and  _71
REMARK   31  A    between atoms: _74  and  _76
REMARK   32  A    between atoms: _76  and  _77
REMARK   33  A    between atoms: _76  and  _79
REMARK   34  A    between atoms: _79  and  _80
REMARK   35  A    between atoms: _83  and  _85
REMARK   36  A    between atoms: _85  and  _86
REMARK   37  A    between atoms: _85  and  _88
REMARK   38  A    between atoms: _88  and  _89
REMARK   39  A    between atoms: _92  and  _94
REMARK   40  A    between atoms: _94  and  _95
REMARK   41  A    between atoms: _94  and  _97
REMARK   42  A    between atoms: _100  and  _102
REMARK   43  A    between atoms: _102  and  _103
REMARK   44  A    between atoms: _102  and  _105
REMARK   45  A    between atoms: _105  and  _106
REMARK   46  A    between atoms: _106  and  _107
REMARK   47  A    between atoms: _107  and  _108
REMARK   48  A    between atoms: _108  and  _109
REMARK   49  A    between atoms: _113  and  _115
REMARK   50  A    between atoms: _115  and  _116
REMARK   51  A    between atoms: _115  and  _118
REMARK   52  A    between atoms: _118  and  _119
REMARK   53  A    between atoms: _119  and  _120
REMARK   54  A    between atoms: _122  and  _124
REMARK   55  A    between atoms: _124  and  _125
REMARK   56  A    between atoms: _124  and  _127
REMARK   57  A    between atoms: _127  and  _128
REMARK   58  A    between atoms: _131  and  _133
REMARK   59  A    between atoms: _133  and  _134
REMARK   60  A    between atoms: _136  and  _138
REMARK   61  A    between atoms: _138  and  _139
REMARK   62  A    between atoms: _141  and  _143
REMARK   63  A    between atoms: _143  and  _144
REMARK   64  A    between atoms: _143  and  _146
REMARK   65  A    between atoms: _146  and  _147
REMARK   66  A    between atoms: _150  and  _152
REMARK   67  A    between atoms: _152  and  _153
REMARK   68  A    between atoms: _155  and  _157
REMARK   69  A    between atoms: _157  and  _158
REMARK   70  A    between atoms: _160  and  _162
REMARK   71  A    between atoms: _162  and  _163
REMARK   72  A    between atoms: _162  and  _165
REMARK   73  A    between atoms: _165  and  _166
REMARK   74  A    between atoms: _172  and  _174
REMARK   75  A    between atoms: _174  and  _175
REMARK   76  A    between atoms: _174  and  _177
REMARK   77  A    between atoms: _177  and  _178
REMARK   78  A    between atoms: _181  and  _183
REMARK   79  A    between atoms: _183  and  _184
REMARK   80  A    between atoms: _183  and  _186
REMARK   81  A    between atoms: _189  and  _191
REMARK   82  A    between atoms: _191  and  _192
REMARK   83  A    between atoms: _191  and  _194
REMARK   84  A    between atoms: _194  and  _195
REMARK   85  A    between atoms: _199  and  _200
REMARK   86  A    between atoms: _205  and  _207
REMARK   87  A    between atoms: _207  and  _208
REMARK   88  A    between atoms: _207  and  _210
REMARK   89  A    between atoms: _210  and  _211
REMARK   90  A    between atoms: _214  and  _215
REMARK   91  A    between atoms: _220  and  _222
REMARK   92  A    between atoms: _222  and  _223
REMARK   93  A    between atoms: _222  and  _225
REMARK   94  A    between atoms: _228  and  _230
REMARK   95  A    between atoms: _230  and  _231
REMARK   96  A    between atoms: _230  and  _233
REMARK   97  A    between atoms: _233  and  _234
REMARK   98  A    between atoms: _239  and  _241
REMARK   99  A    between atoms: _241  and  _242
REMARK  100  A    between atoms: _241  and  _244
REMARK  101  A    between atoms: _244  and  _245
REMARK  102  A    between atoms: _248  and  _250
REMARK  103  A    between atoms: _250  and  _251
REMARK  104  A    between atoms: _250  and  _253
REMARK  105  A    between atoms: _253  and  _254
REMARK  106  A    between atoms: _257  and  _259
REMARK  107  A    between atoms: _259  and  _260
REMARK  108  A    between atoms: _262  and  _264
REMARK  109  A    between atoms: _264  and  _265
REMARK  110  A    between atoms: _264  and  _267
REMARK  111  A    between atoms: _267  and  _268
REMARK  112  A    between atoms: _268  and  _269
REMARK  113  A    between atoms: _269  and  _270
REMARK  114  A    between atoms: _279  and  _281
REMARK  115  A    between atoms: _281  and  _282
REMARK  116  A    between atoms: _281  and  _284
REMARK  117  A    between atoms: _284  and  _285
REMARK  118  A    between atoms: _290  and  _292
REMARK  119  A    between atoms: _292  and  _293
REMARK  120  A    between atoms: _292  and  _295
REMARK  121  A    between atoms: _295  and  _296
REMARK  122  A    between atoms: _296  and  _297
REMARK  123  A    between atoms: _297  and  _298
REMARK  124  A    between atoms: _307  and  _309
REMARK  125  A    between atoms: _309  and  _310
REMARK  126  A    between atoms: _309  and  _312
REMARK  127  A    between atoms: _312  and  _313
REMARK  128  A    between atoms: _316  and  _318
REMARK  129  A    between atoms: _318  and  _319
REMARK  130  A    between atoms: _318  and  _321
REMARK  131  A    between atoms: _321  and  _322
REMARK  132  A    between atoms: _325  and  _327
REMARK  133  A    between atoms: _327  and  _328
REMARK  134  A    between atoms: _327  and  _330
REMARK  135  A    between atoms: _330  and  _331
REMARK  136  A    between atoms: _334  and  _336
REMARK  137  A    between atoms: _336  and  _337
REMARK  138  A    between atoms: _336  and  _339
REMARK  139  A    between atoms: _339  and  _340
REMARK  140  A    between atoms: _343  and  _345
REMARK  141  A    between atoms: _345  and  _346
REMARK  142  A    between atoms: _348  and  _350
REMARK  143  A    between atoms: _350  and  _351
REMARK  144  A    between atoms: _354  and  _356
REMARK  145  A    between atoms: _356  and  _357
REMARK  146  A    between atoms: _356  and  _359
REMARK  147  A    between atoms: _359  and  _360
REMARK  148  A    between atoms: _363  and  _365
REMARK  149  A    between atoms: _365  and  _366
REMARK  150  A    between atoms: _365  and  _368
REMARK  151  A    between atoms: _368  and  _369
REMARK  152  A    between atoms: _372  and  _374
REMARK  153  A    between atoms: _374  and  _375
REMARK  154  A    between atoms: _374  and  _377
REMARK  155  A    between atoms: _377  and  _378
REMARK  156  A    between atoms: _381  and  _383
REMARK  157  A    between atoms: _383  and  _384
REMARK  158  A    between atoms: _383  and  _386
REMARK  159  A    between atoms: _389  and  _391
REMARK  160  A    between atoms: _391  and  _392
REMARK  161  A    between atoms: _391  and  _394
REMARK  162  A    between atoms: _394  and  _395
REMARK  163  A    between atoms: _398  and  _400
REMARK  164  A    between atoms: _400  and  _401
REMARK  165  A    between atoms: _400  and  _403
REMARK  166  A    between atoms: _403  and  _404
REMARK  167  A    between atoms: _404  and  _405
REMARK  168  A    between atoms: _407  and  _409
REMARK  169  A    between atoms: _409  and  _410
REMARK  170  A    between atoms: _409  and  _412
REMARK  171  A    between atoms: _412  and  _413
REMARK  172  A    between atoms: _416  and  _418
REMARK  173  A    between atoms: _418  and  _419
REMARK  174  A    between atoms: _421  and  _423
REMARK  175  A    between atoms: _423  and  _424
REMARK  176  A    between atoms: _426  and  _428
REMARK  177  A    between atoms: _428  and  _429
REMARK  178  A    between atoms: _428  and  _431
REMARK  179  A    between atoms: _431  and  _432
REMARK  180  A    between atoms: _435  and  _437
REMARK  181  A    between atoms: _437  and  _438
REMARK  182  A    between atoms: _440  and  _442
REMARK  183  A    between atoms: _442  and  _443
REMARK  184  A    between atoms: _445  and  _447
REMARK  185  A    between atoms: _447  and  _448
REMARK  186  A    between atoms: _447  and  _450
REMARK  187  A    between atoms: _450  and  _451
REMARK  188  A    between atoms: _457  and  _459
REMARK  189  A    between atoms: _459  and  _460
REMARK  190  A    between atoms: _459  and  _462
REMARK  191  A    between atoms: _462  and  _463
REMARK  192  A    between atoms: _466  and  _468
REMARK  193  A    between atoms: _468  and  _469
REMARK  194  A    between atoms: _468  and  _471
REMARK  195  A    between atoms: _474  and  _476
REMARK  196  A    between atoms: _476  and  _477
REMARK  197  A    between atoms: _476  and  _479
REMARK  198  A    between atoms: _479  and  _480
REMARK  199  A    between atoms: _484  and  _485
REMARK  200  A    between atoms: _490  and  _492
REMARK  201  A    between atoms: _492  and  _493
REMARK  202  A    between atoms: _492  and  _495
REMARK  203  A    between atoms: _495  and  _496
REMARK  204  A    between atoms: _499  and  _500
REMARK  205  A    between atoms: _505  and  _507
REMARK  206  A    between atoms: _507  and  _508
REMARK  207  A    between atoms: _507  and  _510
REMARK  208  A    between atoms: _513  and  _515
REMARK  209  A    between atoms: _515  and  _516
REMARK  210  A    between atoms: _515  and  _518
REMARK  211  A    between atoms: _518  and  _519
REMARK  212  A    between atoms: _524  and  _526
REMARK  213  A    between atoms: _526  and  _527
REMARK  214  A    between atoms: _526  and  _529
REMARK  215  A    between atoms: _529  and  _530
REMARK  216  A    between atoms: _533  and  _535
REMARK  217  A    between atoms: _535  and  _536
REMARK  218  A    between atoms: _535  and  _538
REMARK  219  A    between atoms: _538  and  _539
REMARK  220  A    between atoms: _542  and  _544
REMARK  221  A    between atoms: _544  and  _545
REMARK  222  A    between atoms: _547  and  _549
REMARK  223  A    between atoms: _549  and  _550
REMARK  224  A    between atoms: _549  and  _552
REMARK  225  A    between atoms: _552  and  _553
REMARK  226  A    between atoms: _553  and  _554
REMARK  227  A    between atoms: _554  and  _555
REMARK  228  A    between atoms: _564  and  _566
REMARK  229  A    between atoms: _566  and  _567
REMARK  230  A    between atoms: _566  and  _569
REMARK  231  A    between atoms: _569  and  _570
REMARK                            x       y       z     vdW  Elec       q    Type
REMARK                         _______ _______ _______ _____ _____    ______ ____
ROOT
ATOM      1  CA  ILE A   5      17.013  -3.212  20.996  0.00  0.00    +0.149 C 
ENDROOT
BRANCH   1   2
ATOM      2  C   ILE A   5      16.886  -4.308  22.030  0.00  0.00    +0.241 C 
ATOM      3  O   ILE A   5      15.812  -4.468  22.611  0.00  0.00    -0.273 OA
ATOM      4  N   GLY A   6      17.965  -5.053  22.263  0.00  0.00    -0.295 N 
ATOM      5  H   GLY A   6      18.861  -4.838  21.782  0.00  0.00    +0.150 HD
BRANCH   4   6
ATOM      6  CA  GLY A   6      17.886  -6.167  23.191  0.00  0.00    +0.176 C 
BRANCH   6   7
ATOM      7  C   GLY A   6      18.308  -5.865  24.621  0.00  0.00    +0.243 C 
ATOM      8  O   GLY A   6      18.243  -6.749  25.473  0.00  0.00    -0.273 OA
ATOM      9  N   GLY A   7      18.735  -4.631  24.892  0.00  0.00    -0.295 N 
ATOM     10  H   GLY A   7      18.729  -3.922  24.131  0.00  0.00    +0.150 HD
BRANCH   9  11
ATOM     11  CA  GLY A   7      19.211  -4.234  26.216  0.00  0.00    +0.176 C 
BRANCH  11  12
ATOM     12  C   GLY A   7      20.610  -3.638  26.104  0.00  0.00    +0.243 C 
ATOM     13  N   PHE A   8      21.310  -3.578  27.234  0.00  0.00    -0.297 N 
ATOM     14  H   PHE A   8      20.910  -4.022  28.085  0.00  0.00    +0.150 HD
ATOM     15  O   GLY A   7      21.055  -3.278  25.014  0.00  0.00    -0.273 OA
BRANCH  13  16
ATOM     16  CA  PHE A   8      22.605  -2.924  27.342  0.00  0.00    +0.153 C 
BRANCH  16  17
ATOM     17  C   PHE A   8      23.768  -3.908  27.354  0.00  0.00    +0.241 C 
ATOM     18  O   PHE A   8      23.633  -5.056  27.772  0.00  0.00    -0.273 OA
ATOM     19  N   ILE A   9      24.903  -3.423  26.871  0.00  0.00    -0.298 N 
ATOM     20  H   ILE A   9      24.898  -2.458  26.484  0.00  0.00    +0.150 HD
BRANCH  19  21
ATOM     21  CA  ILE A   9      26.149  -4.158  26.851  0.00  0.00    +0.137 C 
BRANCH  21  22
ATOM     22  CB  ILE A   9      26.509  -4.691  25.430  0.00  0.00    +0.026 C 
ATOM     23  CG2 ILE A   9      25.471  -5.710  24.914  0.00  0.00    +0.002 C 
BRANCH  22  24
ATOM     24  CG1 ILE A   9      26.654  -3.528  24.441  0.00  0.00    +0.002 C 
ATOM     25  CD1 ILE A   9      27.262  -3.907  23.128  0.00  0.00    +0.000 C 
ENDBRANCH  22  24
ENDBRANCH  21  22
BRANCH  21  26
ATOM     26  C   ILE A   9      27.265  -3.250  27.381  0.00  0.00    +0.227 C 
ATOM     27  O   ILE A   9      27.159  -2.019  27.402  0.00  0.00    -0.286 OA
ENDBRANCH  21  26
ENDBRANCH  19  21
ENDBRANCH  16  17
BRANCH  16  28
ATOM     28  CB  PHE A   8      22.639  -2.021  28.576  0.00  0.00    +0.055 C 
BRANCH  28  29
ATOM     29  CG  PHE A   8      21.829  -0.771  28.416  0.00  0.00    -0.020 A 
ATOM     30  CD2 PHE A   8      20.447  -0.826  28.436  0.00  0.00    -0.004 A 
ATOM     31  CE2 PHE A   8      19.684   0.320  28.264  0.00  0.00    -0.000 A 
ATOM     32  CZ  PHE A   8      20.310   1.539  28.088  0.00  0.00    -0.000 A 
ATOM     33  CE1 PHE A   8      21.683   1.615  28.071  0.00  0.00    -0.000 A 
ATOM     34  CD1 PHE A   8      22.446   0.461  28.227  0.00  0.00    -0.004 A 
ENDBRANCH  28  29
ENDBRANCH  16  28
ENDBRANCH  13  16
ENDBRANCH  11  12
ENDBRANCH   9  11
ENDBRANCH   6   7
ENDBRANCH   4   6
ENDBRANCH   1   2
BRANCH   1  37
ATOM     35  C   GLY A   4      18.835  -2.050  22.023  0.00  0.00    +0.243 C 
ATOM     36  O   GLY A   4      18.251  -1.958  23.106  0.00  0.00    -0.273 OA
ATOM     37  N   ILE A   5      18.361  -2.711  20.982  0.00  0.00    -0.297 N 
ATOM     38  H   ILE A   5      18.964  -2.870  20.150  0.00  0.00    +0.150 HD
BRANCH  35  39
ATOM     39  CA  GLY A   4      20.198  -1.437  21.812  0.00  0.00    +0.176 C 
BRANCH  39  41
ATOM     40  C   GLY A   3      21.395  -0.034  23.338  0.00  0.00    +0.243 C 
ATOM     41  N   GLY A   4      20.774  -1.174  23.113  0.00  0.00    -0.295 N 
ATOM     42  H   GLY A   4      20.698  -1.884  23.869  0.00  0.00    +0.150 HD
ATOM     43  O   GLY A   3      21.576   0.811  22.460  0.00  0.00    -0.273 OA
BRANCH  40  44
ATOM     44  CA  GLY A   3      21.890   0.139  24.757  0.00  0.00    +0.176 C 
BRANCH  44  47
ATOM     45  C   ILE A   2      24.258   0.320  25.301  0.00  0.00    +0.241 C 
ATOM     46  O   ILE A   2      24.378  -0.873  25.544  0.00  0.00    -0.273 OA
ATOM     47  N   GLY A   3      23.150   0.855  24.807  0.00  0.00    -0.295 N 
ATOM     48  H   GLY A   3      23.186   1.828  24.441  0.00  0.00    +0.150 HD
BRANCH  45  49
ATOM     49  CA  ILE A   2      25.404   1.303  25.521  0.00  0.00    +0.148 C 
BRANCH  49  52
ATOM     50  C   MET A   1      26.923   1.603  27.415  0.00  0.00    +0.238 C 
ATOM     51  O   MET A   1      26.802   2.837  27.418  0.00  0.00    -0.274 OA
ATOM     52  N   ILE A   2      26.347   0.802  26.520  0.00  0.00    -0.297 N 
ATOM     53  H   ILE A   2      26.575  -0.213  26.532  0.00  0.00    +0.150 HD
BRANCH  50  54
ATOM     54  CA  MET A   1      27.784   0.918  28.458  0.00  0.00    +0.146 C 
BRANCH  54  55
ATOM     55  N   MET A   1      28.913   1.768  28.782  0.00  0.00    -0.238 NA
ATOM     56  H   MET A   1      28.753   2.754  29.072  0.00  0.00    +0.142 HD
ENDBRANCH  54  55
BRANCH  54  57
ATOM     57  CB  MET A   1      26.964   0.590  29.703  0.00  0.00    +0.038 C 
BRANCH  57  58
ATOM     58  CG  MET A   1      27.736  -0.177  30.770  0.00  0.00    +0.060 C 
BRANCH  58  59
ATOM     59  SD  MET A   1      26.724  -0.637  32.196  0.00  0.00    -0.139 S 
ATOM     60  CE  MET A   1      25.433  -1.628  31.457  0.00  0.00    +0.069 C 
ENDBRANCH  58  59
ENDBRANCH  57  58
ENDBRANCH  54  57
ENDBRANCH  50  54
ENDBRANCH  49  52
BRANCH  49  61
ATOM     61  CB  ILE A   2      26.054   1.537  24.128  0.00  0.00    +0.027 C 
ATOM     62  CG2 ILE A   2      27.195   2.543  24.211  0.00  0.00    +0.002 C 
BRANCH  61  63
ATOM     63  CG1 ILE A   2      26.558   0.214  23.545  0.00  0.00    +0.002 C 
ATOM     64  CD1 ILE A   2      27.167   0.393  22.183  0.00  0.00    +0.000 C 
ENDBRANCH  61  63
ENDBRANCH  49  61
ENDBRANCH  45  49
ENDBRANCH  44  47
ENDBRANCH  40  44
ENDBRANCH  39  41
ENDBRANCH  35  39
ENDBRANCH   1  37
BRANCH   1  65
ATOM     65  CB  ILE A   5      16.566  -3.711  19.622  0.00  0.00    +0.027 C 
ATOM     66  CG2 ILE A   5      17.132  -5.109  19.332  0.00  0.00    +0.002 C 
BRANCH  65  67
ATOM     67  CG1 ILE A   5      15.039  -3.648  19.547  0.00  0.00    +0.002 C 
ATOM     68  CD1 ILE A   5      14.518  -3.769  18.153  0.00  0.00    +0.000 C 
ENDBRANCH  65  67
ENDBRANCH   1  65
TORSDOF 29
REMARK  Name = ../refined-set-2016/2fgu/2fgu_pocket.pdb
REMARK  231 active torsions:
REMARK  status: ('A' for Active; 'I' for Inactive)
REMARK    1  A    between atoms: _1  and  _3
REMARK    2  A    between atoms: _3  and  _4
REMARK    3  A    between atoms: _3  and  _6
REMARK    4  A    between atoms: _6  and  _7
REMARK    5  A    between atoms: _7  and  _8
REMARK    6  A    between atoms: _8  and  _9
REMARK    7  A    between atoms: _18  and  _20
REMARK    8  A    between atoms: _20  and  _21
REMARK    9  A    between atoms: _20  and  _23
REMARK   10  A    between atoms: _23  and  _24
REMARK   11  A    between atoms: _27  and  _29
REMARK   12  A    between atoms: _29  and  _30
REMARK   13  A    between atoms: _29  and  _32
REMARK   14  A    between atoms: _32  and  _33
REMARK   15  A    between atoms: _36  and  _38
REMARK   16  A    between atoms: _38  and  _39
REMARK   17  A    between atoms: _38  and  _41
REMARK   18  A    between atoms: _41  and  _42
REMARK   19  A    between atoms: _45  and  _47
REMARK   20  A    between atoms: _47  and  _48
REMARK   21  A    between atoms: _47  and  _50
REMARK   22  A    between atoms: _50  and  _51
REMARK   23  A    between atoms: _54  and  _56
REMARK   24  A    between atoms: _56  and  _57
REMARK   25  A    between atoms: _59  and  _61
REMARK   26  A    between atoms: _61  and  _62
REMARK   27  A    between atoms: _65  and  _67
REMARK   28  A    between atoms: _67  and  _68
REMARK   29  A    between atoms: _67  and  _70
REMARK   30  A    between atoms: _70  and  _71
REMARK   31  A    between atoms: _74  and  _76
REMARK   32  A    between atoms: _76  and  _77
REMARK   33  A    between atoms: _76  and  _79
REMARK   34  A    between atoms: _79  and  _80
REMARK   35  A    between atoms: _83  and  _85
REMARK   36  A    between atoms: _85  and  _86
REMARK   37  A    between atoms: _85  and  _88
REMARK   38  A    between atoms: _88  and  _89
REMARK   39  A    between atoms: _92  and  _94
REMARK   40  A    between atoms: _94  and  _95
REMARK   41  A    between atoms: _94  and  _97
REMARK   42  A    between atoms: _100  and  _102
REMARK   43  A    between atoms: _102  and  _103
REMARK   44  A    between atoms: _102  and  _105
REMARK   45  A    between atoms: _105  and  _106
REMARK   46  A    between atoms: _106  and  _107
REMARK   47  A    between atoms: _107  and  _108
REMARK   48  A    between atoms: _108  and  _109
REMARK   49  A    between atoms: _113  and  _115
REMARK   50  A    between atoms: _115  and  _116
REMARK   51  A    between atoms: _115  and  _118
REMARK   52  A    between atoms: _118  and  _119
REMARK   53  A    between atoms: _119  and  _120
REMARK   54  A    between atoms: _122  and  _124
REMARK   55  A    between atoms: _124  and  _125
REMARK   56  A    between atoms: _124  and  _127
REMARK   57  A    between atoms: _127  and  _128
REMARK   58  A    between atoms: _131  and  _133
REMARK   59  A    between atoms: _133  and  _134
REMARK   60  A    between atoms: _136  and  _138
REMARK   61  A    between atoms: _138  and  _139
REMARK   62  A    between atoms: _141  and  _143
REMARK   63  A    between atoms: _143  and  _144
REMARK   64  A    between atoms: _143  and  _146
REMARK   65  A    between atoms: _146  and  _147
REMARK   66  A    between atoms: _150  and  _152
REMARK   67  A    between atoms: _152  and  _153
REMARK   68  A    between atoms: _155  and  _157
REMARK   69  A    between atoms: _157  and  _158
REMARK   70  A    between atoms: _160  and  _162
REMARK   71  A    between atoms: _162  and  _163
REMARK   72  A    between atoms: _162  and  _165
REMARK   73  A    between atoms: _165  and  _166
REMARK   74  A    between atoms: _172  and  _174
REMARK   75  A    between atoms: _174  and  _175
REMARK   76  A    between atoms: _174  and  _177
REMARK   77  A    between atoms: _177  and  _178
REMARK   78  A    between atoms: _181  and  _183
REMARK   79  A    between atoms: _183  and  _184
REMARK   80  A    between atoms: _183  and  _186
REMARK   81  A    between atoms: _189  and  _191
REMARK   82  A    between atoms: _191  and  _192
REMARK   83  A    between atoms: _191  and  _194
REMARK   84  A    between atoms: _194  and  _195
REMARK   85  A    between atoms: _199  and  _200
REMARK   86  A    between atoms: _205  and  _207
REMARK   87  A    between atoms: _207  and  _208
REMARK   88  A    between atoms: _207  and  _210
REMARK   89  A    between atoms: _210  and  _211
REMARK   90  A    between atoms: _214  and  _215
REMARK   91  A    between atoms: _220  and  _222
REMARK   92  A    between atoms: _222  and  _223
REMARK   93  A    between atoms: _222  and  _225
REMARK   94  A    between atoms: _228  and  _230
REMARK   95  A    between atoms: _230  and  _231
REMARK   96  A    between atoms: _230  and  _233
REMARK   97  A    between atoms: _233  and  _234
REMARK   98  A    between atoms: _239  and  _241
REMARK   99  A    between atoms: _241  and  _242
REMARK  100  A    between atoms: _241  and  _244
REMARK  101  A    between atoms: _244  and  _245
REMARK  102  A    between atoms: _248  and  _250
REMARK  103  A    between atoms: _250  and  _251
REMARK  104  A    between atoms: _250  and  _253
REMARK  105  A    between atoms: _253  and  _254
REMARK  106  A    between atoms: _257  and  _259
REMARK  107  A    between atoms: _259  and  _260
REMARK  108  A    between atoms: _262  and  _264
REMARK  109  A    between atoms: _264  and  _265
REMARK  110  A    between atoms: _264  and  _267
REMARK  111  A    between atoms: _267  and  _268
REMARK  112  A    between atoms: _268  and  _269
REMARK  113  A    between atoms: _269  and  _270
REMARK  114  A    between atoms: _279  and  _281
REMARK  115  A    between atoms: _281  and  _282
REMARK  116  A    between atoms: _281  and  _284
REMARK  117  A    between atoms: _284  and  _285
REMARK  118  A    between atoms: _290  and  _292
REMARK  119  A    between atoms: _292  and  _293
REMARK  120  A    between atoms: _292  and  _295
REMARK  121  A    between atoms: _295  and  _296
REMARK  122  A    between atoms: _296  and  _297
REMARK  123  A    between atoms: _297  and  _298
REMARK  124  A    between atoms: _307  and  _309
REMARK  125  A    between atoms: _309  and  _310
REMARK  126  A    between atoms: _309  and  _312
REMARK  127  A    between atoms: _312  and  _313
REMARK  128  A    between atoms: _316  and  _318
REMARK  129  A    between atoms: _318  and  _319
REMARK  130  A    between atoms: _318  and  _321
REMARK  131  A    between atoms: _321  and  _322
REMARK  132  A    between atoms: _325  and  _327
REMARK  133  A    between atoms: _327  and  _328
REMARK  134  A    between atoms: _327  and  _330
REMARK  135  A    between atoms: _330  and  _331
REMARK  136  A    between atoms: _334  and  _336
REMARK  137  A    between atoms: _336  and  _337
REMARK  138  A    between atoms: _336  and  _339
REMARK  139  A    between atoms: _339  and  _340
REMARK  140  A    between atoms: _343  and  _345
REMARK  141  A    between atoms: _345  and  _346
REMARK  142  A    between atoms: _348  and  _350
REMARK  143  A    between atoms: _350  and  _351
REMARK  144  A    between atoms: _354  and  _356
REMARK  145  A    between atoms: _356  and  _357
REMARK  146  A    between atoms: _356  and  _359
REMARK  147  A    between atoms: _359  and  _360
REMARK  148  A    between atoms: _363  and  _365
REMARK  149  A    between atoms: _365  and  _366
REMARK  150  A    between atoms: _365  and  _368
REMARK  151  A    between atoms: _368  and  _369
REMARK  152  A    between atoms: _372  and  _374
REMARK  153  A    between atoms: _374  and  _375
REMARK  154  A    between atoms: _374  and  _377
REMARK  155  A    between atoms: _377  and  _378
REMARK  156  A    between atoms: _381  and  _383
REMARK  157  A    between atoms: _383  and  _384
REMARK  158  A    between atoms: _383  and  _386
REMARK  159  A    between atoms: _389  and  _391
REMARK  160  A    between atoms: _391  and  _392
REMARK  161  A    between atoms: _391  and  _394
REMARK  162  A    between atoms: _394  and  _395
REMARK  163  A    between atoms: _398  and  _400
REMARK  164  A    between atoms: _400  and  _401
REMARK  165  A    between atoms: _400  and  _403
REMARK  166  A    between atoms: _403  and  _404
REMARK  167  A    between atoms: _404  and  _405
REMARK  168  A    between atoms: _407  and  _409
REMARK  169  A    between atoms: _409  and  _410
REMARK  170  A    between atoms: _409  and  _412
REMARK  171  A    between atoms: _412  and  _413
REMARK  172  A    between atoms: _416  and  _418
REMARK  173  A    between atoms: _418  and  _419
REMARK  174  A    between atoms: _421  and  _423
REMARK  175  A    between atoms: _423  and  _424
REMARK  176  A    between atoms: _426  and  _428
REMARK  177  A    between atoms: _428  and  _429
REMARK  178  A    between atoms: _428  and  _431
REMARK  179  A    between atoms: _431  and  _432
REMARK  180  A    between atoms: _435  and  _437
REMARK  181  A    between atoms: _437  and  _438
REMARK  182  A    between atoms: _440  and  _442
REMARK  183  A    between atoms: _442  and  _443
REMARK  184  A    between atoms: _445  and  _447
REMARK  185  A    between atoms: _447  and  _448
REMARK  186  A    between atoms: _447  and  _450
REMARK  187  A    between atoms: _450  and  _451
REMARK  188  A    between atoms: _457  and  _459
REMARK  189  A    between atoms: _459  and  _460
REMARK  190  A    between atoms: _459  and  _462
REMARK  191  A    between atoms: _462  and  _463
REMARK  192  A    between atoms: _466  and  _468
REMARK  193  A    between atoms: _468  and  _469
REMARK  194  A    between atoms: _468  and  _471
REMARK  195  A    between atoms: _474  and  _476
REMARK  196  A    between atoms: _476  and  _477
REMARK  197  A    between atoms: _476  and  _479
REMARK  198  A    between atoms: _479  and  _480
REMARK  199  A    between atoms: _484  and  _485
REMARK  200  A    between atoms: _490  and  _492
REMARK  201  A    between atoms: _492  and  _493
REMARK  202  A    between atoms: _492  and  _495
REMARK  203  A    between atoms: _495  and  _496
REMARK  204  A    between atoms: _499  and  _500
REMARK  205  A    between atoms: _505  and  _507
REMARK  206  A    between atoms: _507  and  _508
REMARK  207  A    between atoms: _507  and  _510
REMARK  208  A    between atoms: _513  and  _515
REMARK  209  A    between atoms: _515  and  _516
REMARK  210  A    between atoms: _515  and  _518
REMARK  211  A    between atoms: _518  and  _519
REMARK  212  A    between atoms: _524  and  _526
REMARK  213  A    between atoms: _526  and  _527
REMARK  214  A    between atoms: _526  and  _529
REMARK  215  A    between atoms: _529  and  _530
REMARK  216  A    between atoms: _533  and  _535
REMARK  217  A    between atoms: _535  and  _536
REMARK  218  A    between atoms: _535  and  _538
REMARK  219  A    between atoms: _538  and  _539
REMARK  220  A    between atoms: _542  and  _544
REMARK  221  A    between atoms: _544  and  _545
REMARK  222  A    between atoms: _547  and  _549
REMARK  223  A    between atoms: _549  and  _550
REMARK  224  A    between atoms: _549  and  _552
REMARK  225  A    between atoms: _552  and  _553
REMARK  226  A    between atoms: _553  and  _554
REMARK  227  A    between atoms: _554  and  _555
REMARK  228  A    between atoms: _564  and  _566
REMARK  229  A    between atoms: _566  and  _567
REMARK  230  A    between atoms: _566  and  _569
REMARK  231  A    between atoms: _569  and  _570
REMARK                            x       y       z     vdW  Elec       q    Type
REMARK                         _______ _______ _______ _____ _____    ______ ____
ROOT
ATOM      1  CA  VAL A   1      31.949  -1.829  25.613  0.00  0.00    +0.133 C 
ENDROOT
BRANCH   1   2
ATOM      2  CB  VAL A   1      31.271  -1.031  24.466  0.00  0.00    +0.023 C 
ATOM      3  CG2 VAL A   1      30.853   0.375  24.905  0.00  0.00    +0.002 C 
ATOM      4  CG1 VAL A   1      30.111  -1.838  23.872  0.00  0.00    +0.002 C 
ENDBRANCH   1   2
BRANCH   1   5
ATOM      5  N   VAL A   1      31.083  -2.045  26.746  0.00  0.00    -0.239 NA
ATOM      6  H   VAL A   1      30.919  -1.267  27.416  0.00  0.00    +0.142 HD
ENDBRANCH   1   5
BRANCH   1   7
ATOM      7  C   VAL A   1      33.218  -1.140  26.059  0.00  0.00    +0.224 C 
ATOM      8  O   VAL A   1      33.270  -0.587  27.153  0.00  0.00    -0.287 OA
ENDBRANCH   1   7
TORSDOF 3
REMARK  Name = ../refined-set-2016/2fgu/2fgu_pocket.pdb
REMARK  231 active torsions:
REMARK  status: ('A' for Active; 'I' for Inactive)
REMARK    1  A    between atoms: _1  and  _3
REMARK    2  A    between atoms: _3  and  _4
REMARK    3  A    between atoms: _3  and  _6
REMARK    4  A    between atoms: _6  and  _7
REMARK    5  A    between atoms: _7  and  _8
REMARK    6  A    between atoms: _8  and  _9
REMARK    7  A    between atoms: _18  and  _20
REMARK    8  A    between atoms: _20  and  _21
REMARK    9  A    between atoms: _20  and  _23
REMARK   10  A    between atoms: _23  and  _24
REMARK   11  A    between atoms: _27  and  _29
REMARK   12  A    between atoms: _29  and  _30
REMARK   13  A    between atoms: _29  and  _32
REMARK   14  A    between atoms: _32  and  _33
REMARK   15  A    between atoms: _36  and  _38
REMARK   16  A    between atoms: _38  and  _39
REMARK   17  A    between atoms: _38  and  _41
REMARK   18  A    between atoms: _41  and  _42
REMARK   19  A    between atoms: _45  and  _47
REMARK   20  A    between atoms: _47  and  _48
REMARK   21  A    between atoms: _47  and  _50
REMARK   22  A    between atoms: _50  and  _51
REMARK   23  A    between atoms: _54  and  _56
REMARK   24  A    between atoms: _56  and  _57
REMARK   25  A    between atoms: _59  and  _61
REMARK   26  A    between atoms: _61  and  _62
REMARK   27  A    between atoms: _65  and  _67
REMARK   28  A    between atoms: _67  and  _68
REMARK   29  A    between atoms: _67  and  _70
REMARK   30  A    between atoms: _70  and  _71
REMARK   31  A    between atoms: _74  and  _76
REMARK   32  A    between atoms: _76  and  _77
REMARK   33  A    between atoms: _76  and  _79
REMARK   34  A    between atoms: _79  and  _80
REMARK   35  A    between atoms: _83  and  _85
REMARK   36  A    between atoms: _85  and  _86
REMARK   37  A    between atoms: _85  and  _88
REMARK   38  A    between atoms: _88  and  _89
REMARK   39  A    between atoms: _92  and  _94
REMARK   40  A    between atoms: _94  and  _95
REMARK   41  A    between atoms: _94  and  _97
REMARK   42  A    between atoms: _100  and  _102
REMARK   43  A    between atoms: _102  and  _103
REMARK   44  A    between atoms: _102  and  _105
REMARK   45  A    between atoms: _105  and  _106
REMARK   46  A    between atoms: _106  and  _107
REMARK   47  A    between atoms: _107  and  _108
REMARK   48  A    between atoms: _108  and  _109
REMARK   49  A    between atoms: _113  and  _115
REMARK   50  A    between atoms: _115  and  _116
REMARK   51  A    between atoms: _115  and  _118
REMARK   52  A    between atoms: _118  and  _119
REMARK   53  A    between atoms: _119  and  _120
REMARK   54  A    between atoms: _122  and  _124
REMARK   55  A    between atoms: _124  and  _125
REMARK   56  A    between atoms: _124  and  _127
REMARK   57  A    between atoms: _127  and  _128
REMARK   58  A    between atoms: _131  and  _133
REMARK   59  A    between atoms: _133  and  _134
REMARK   60  A    between atoms: _136  and  _138
REMARK   61  A    between atoms: _138  and  _139
REMARK   62  A    between atoms: _141  and  _143
REMARK   63  A    between atoms: _143  and  _144
REMARK   64  A    between atoms: _143  and  _146
REMARK   65  A    between atoms: _146  and  _147
REMARK   66  A    between atoms: _150  and  _152
REMARK   67  A    between atoms: _152  and  _153
REMARK   68  A    between atoms: _155  and  _157
REMARK   69  A    between atoms: _157  and  _158
REMARK   70  A    between atoms: _160  and  _162
REMARK   71  A    between atoms: _162  and  _163
REMARK   72  A    between atoms: _162  and  _165
REMARK   73  A    between atoms: _165  and  _166
REMARK   74  A    between atoms: _172  and  _174
REMARK   75  A    between atoms: _174  and  _175
REMARK   76  A    between atoms: _174  and  _177
REMARK   77  A    between atoms: _177  and  _178
REMARK   78  A    between atoms: _181  and  _183
REMARK   79  A    between atoms: _183  and  _184
REMARK   80  A    between atoms: _183  and  _186
REMARK   81  A    between atoms: _189  and  _191
REMARK   82  A    between atoms: _191  and  _192
REMARK   83  A    between atoms: _191  and  _194
REMARK   84  A    between atoms: _194  and  _195
REMARK   85  A    between atoms: _199  and  _200
REMARK   86  A    between atoms: _205  and  _207
REMARK   87  A    between atoms: _207  and  _208
REMARK   88  A    between atoms: _207  and  _210
REMARK   89  A    between atoms: _210  and  _211
REMARK   90  A    between atoms: _214  and  _215
REMARK   91  A    between atoms: _220  and  _222
REMARK   92  A    between atoms: _222  and  _223
REMARK   93  A    between atoms: _222  and  _225
REMARK   94  A    between atoms: _228  and  _230
REMARK   95  A    between atoms: _230  and  _231
REMARK   96  A    between atoms: _230  and  _233
REMARK   97  A    between atoms: _233  and  _234
REMARK   98  A    between atoms: _239  and  _241
REMARK   99  A    between atoms: _241  and  _242
REMARK  100  A    between atoms: _241  and  _244
REMARK  101  A    between atoms: _244  and  _245
REMARK  102  A    between atoms: _248  and  _250
REMARK  103  A    between atoms: _250  and  _251
REMARK  104  A    between atoms: _250  and  _253
REMARK  105  A    between atoms: _253  and  _254
REMARK  106  A    between atoms: _257  and  _259
REMARK  107  A    between atoms: _259  and  _260
REMARK  108  A    between atoms: _262  and  _264
REMARK  109  A    between atoms: _264  and  _265
REMARK  110  A    between atoms: _264  and  _267
REMARK  111  A    between atoms: _267  and  _268
REMARK  112  A    between atoms: _268  and  _269
REMARK  113  A    between atoms: _269  and  _270
REMARK  114  A    between atoms: _279  and  _281
REMARK  115  A    between atoms: _281  and  _282
REMARK  116  A    between atoms: _281  and  _284
REMARK  117  A    between atoms: _284  and  _285
REMARK  118  A    between atoms: _290  and  _292
REMARK  119  A    between atoms: _292  and  _293
REMARK  120  A    between atoms: _292  and  _295
REMARK  121  A    between atoms: _295  and  _296
REMARK  122  A    between atoms: _296  and  _297
REMARK  123  A    between atoms: _297  and  _298
REMARK  124  A    between atoms: _307  and  _309
REMARK  125  A    between atoms: _309  and  _310
REMARK  126  A    between atoms: _309  and  _312
REMARK  127  A    between atoms: _312  and  _313
REMARK  128  A    between atoms: _316  and  _318
REMARK  129  A    between atoms: _318  and  _319
REMARK  130  A    between atoms: _318  and  _321
REMARK  131  A    between atoms: _321  and  _322
REMARK  132  A    between atoms: _325  and  _327
REMARK  133  A    between atoms: _327  and  _328
REMARK  134  A    between atoms: _327  and  _330
REMARK  135  A    between atoms: _330  and  _331
REMARK  136  A    between atoms: _334  and  _336
REMARK  137  A    between atoms: _336  and  _337
REMARK  138  A    between atoms: _336  and  _339
REMARK  139  A    between atoms: _339  and  _340
REMARK  140  A    between atoms: _343  and  _345
REMARK  141  A    between atoms: _345  and  _346
REMARK  142  A    between atoms: _348  and  _350
REMARK  143  A    between atoms: _350  and  _351
REMARK  144  A    between atoms: _354  and  _356
REMARK  145  A    between atoms: _356  and  _357
REMARK  146  A    between atoms: _356  and  _359
REMARK  147  A    between atoms: _359  and  _360
REMARK  148  A    between atoms: _363  and  _365
REMARK  149  A    between atoms: _365  and  _366
REMARK  150  A    between atoms: _365  and  _368
REMARK  151  A    between atoms: _368  and  _369
REMARK  152  A    between atoms: _372  and  _374
REMARK  153  A    between atoms: _374  and  _375
REMARK  154  A    between atoms: _374  and  _377
REMARK  155  A    between atoms: _377  and  _378
REMARK  156  A    between atoms: _381  and  _383
REMARK  157  A    between atoms: _383  and  _384
REMARK  158  A    between atoms: _383  and  _386
REMARK  159  A    between atoms: _389  and  _391
REMARK  160  A    between atoms: _391  and  _392
REMARK  161  A    between atoms: _391  and  _394
REMARK  162  A    between atoms: _394  and  _395
REMARK  163  A    between atoms: _398  and  _400
REMARK  164  A    between atoms: _400  and  _401
REMARK  165  A    between atoms: _400  and  _403
REMARK  166  A    between atoms: _403  and  _404
REMARK  167  A    between atoms: _404  and  _405
REMARK  168  A    between atoms: _407  and  _409
REMARK  169  A    between atoms: _409  and  _410
REMARK  170  A    between atoms: _409  and  _412
REMARK  171  A    between atoms: _412  and  _413
REMARK  172  A    between atoms: _416  and  _418
REMARK  173  A    between atoms: _418  and  _419
REMARK  174  A    between atoms: _421  and  _423
REMARK  175  A    between atoms: _423  and  _424
REMARK  176  A    between atoms: _426  and  _428
REMARK  177  A    between atoms: _428  and  _429
REMARK  178  A    between atoms: _428  and  _431
REMARK  179  A    between atoms: _431  and  _432
REMARK  180  A    between atoms: _435  and  _437
REMARK  181  A    between atoms: _437  and  _438
REMARK  182  A    between atoms: _440  and  _442
REMARK  183  A    between atoms: _442  and  _443
REMARK  184  A    between atoms: _445  and  _447
REMARK  185  A    between atoms: _447  and  _448
REMARK  186  A    between atoms: _447  and  _450
REMARK  187  A    between atoms: _450  and  _451
REMARK  188  A    between atoms: _457  and  _459
REMARK  189  A    between atoms: _459  and  _460
REMARK  190  A    between atoms: _459  and  _462
REMARK  191  A    between atoms: _462  and  _463
REMARK  192  A    between atoms: _466  and  _468
REMARK  193  A    between atoms: _468  and  _469
REMARK  194  A    between atoms: _468  and  _471
REMARK  195  A    between atoms: _474  and  _476
REMARK  196  A    between atoms: _476  and  _477
REMARK  197  A    between atoms: _476  and  _479
REMARK  198  A    between atoms: _479  and  _480
REMARK  199  A    between atoms: _484  and  _485
REMARK  200  A    between atoms: _490  and  _492
REMARK  201  A    between atoms: _492  and  _493
REMARK  202  A    between atoms: _492  and  _495
REMARK  203  A    between atoms: _495  and  _496
REMARK  204  A    between atoms: _499  and  _500
REMARK  205  A    between atoms: _505  and  _507
REMARK  206  A    between atoms: _507  and  _508
REMARK  207  A    between atoms: _507  and  _510
REMARK  208  A    between atoms: _513  and  _515
REMARK  209  A    between atoms: _515  and  _516
REMARK  210  A    between atoms: _515  and  _518
REMARK  211  A    between atoms: _518  and  _519
REMARK  212  A    between atoms: _524  and  _526
REMARK  213  A    between atoms: _526  and  _527
REMARK  214  A    between atoms: _526  and  _529
REMARK  215  A    between atoms: _529  and  _530
REMARK  216  A    between atoms: _533  and  _535
REMARK  217  A    between atoms: _535  and  _536
REMARK  218  A    between atoms: _535  and  _538
REMARK  219  A    between atoms: _538  and  _539
REMARK  220  A    between atoms: _542  and  _544
REMARK  221  A    between atoms: _544  and  _545
REMARK  222  A    between atoms: _547  and  _549
REMARK  223  A    between atoms: _549  and  _550
REMARK  224  A    between atoms: _549  and  _552
REMARK  225  A    between atoms: _552  and  _553
REMARK  226  A    between atoms: _553  and  _554
REMARK  227  A    between atoms: _554  and  _555
REMARK  228  A    between atoms: _564  and  _566
REMARK  229  A    between atoms: _566  and  _567
REMARK  230  A    between atoms: _566  and  _569
REMARK  231  A    between atoms: _569  and  _570
REMARK                            x       y       z     vdW  Elec       q    Type
REMARK                         _______ _______ _______ _____ _____    ______ ____
ROOT
ATOM      1  CA  LEU A   1      33.088   1.364  20.744  0.00  0.00    +0.133 C 
ENDROOT
BRANCH   1   2
ATOM      2  N   LEU A   1      33.383   2.263  19.634  0.00  0.00    -0.239 NA
ATOM      3  H   LEU A   1      32.669   2.385  18.888  0.00  0.00    +0.142 HD
ENDBRANCH   1   2
BRANCH   1   4
ATOM      4  C   LEU A   1      33.288  -0.094  20.341  0.00  0.00    +0.224 C 
ATOM      5  O   LEU A   1      32.837  -0.536  19.289  0.00  0.00    -0.287 OA
ENDBRANCH   1   4
BRANCH   1   6
ATOM      6  CB  LEU A   1      31.652   1.560  21.236  0.00  0.00    +0.025 C 
BRANCH   6   7
ATOM      7  CG  LEU A   1      31.283   3.032  21.450  0.00  0.00    +0.002 C 
ATOM      8  CD2 LEU A   1      32.173   3.650  22.522  0.00  0.00    +0.000 C 
ATOM      9  CD1 LEU A   1      29.824   3.151  21.858  0.00  0.00    +0.000 C 
ENDBRANCH   6   7
ENDBRANCH   1   6
TORSDOF 4
REMARK  Name = ../refined-set-2016/2fgu/2fgu_pocket.pdb
REMARK  231 active torsions:
REMARK  status: ('A' for Active; 'I' for Inactive)
REMARK    1  A    between atoms: _1  and  _3
REMARK    2  A    between atoms: _3  and  _4
REMARK    3  A    between atoms: _3  and  _6
REMARK    4  A    between atoms: _6  and  _7
REMARK    5  A    between atoms: _7  and  _8
REMARK    6  A    between atoms: _8  and  _9
REMARK    7  A    between atoms: _18  and  _20
REMARK    8  A    between atoms: _20  and  _21
REMARK    9  A    between atoms: _20  and  _23
REMARK   10  A    between atoms: _23  and  _24
REMARK   11  A    between atoms: _27  and  _29
REMARK   12  A    between atoms: _29  and  _30
REMARK   13  A    between atoms: _29  and  _32
REMARK   14  A    between atoms: _32  and  _33
REMARK   15  A    between atoms: _36  and  _38
REMARK   16  A    between atoms: _38  and  _39
REMARK   17  A    between atoms: _38  and  _41
REMARK   18  A    between atoms: _41  and  _42
REMARK   19  A    between atoms: _45  and  _47
REMARK   20  A    between atoms: _47  and  _48
REMARK   21  A    between atoms: _47  and  _50
REMARK   22  A    between atoms: _50  and  _51
REMARK   23  A    between atoms: _54  and  _56
REMARK   24  A    between atoms: _56  and  _57
REMARK   25  A    between atoms: _59  and  _61
REMARK   26  A    between atoms: _61  and  _62
REMARK   27  A    between atoms: _65  and  _67
REMARK   28  A    between atoms: _67  and  _68
REMARK   29  A    between atoms: _67  and  _70
REMARK   30  A    between atoms: _70  and  _71
REMARK   31  A    between atoms: _74  and  _76
REMARK   32  A    between atoms: _76  and  _77
REMARK   33  A    between atoms: _76  and  _79
REMARK   34  A    between atoms: _79  and  _80
REMARK   35  A    between atoms: _83  and  _85
REMARK   36  A    between atoms: _85  and  _86
REMARK   37  A    between atoms: _85  and  _88
REMARK   38  A    between atoms: _88  and  _89
REMARK   39  A    between atoms: _92  and  _94
REMARK   40  A    between atoms: _94  and  _95
REMARK   41  A    between atoms: _94  and  _97
REMARK   42  A    between atoms: _100  and  _102
REMARK   43  A    between atoms: _102  and  _103
REMARK   44  A    between atoms: _102  and  _105
REMARK   45  A    between atoms: _105  and  _106
REMARK   46  A    between atoms: _106  and  _107
REMARK   47  A    between atoms: _107  and  _108
REMARK   48  A    between atoms: _108  and  _109
REMARK   49  A    between atoms: _113  and  _115
REMARK   50  A    between atoms: _115  and  _116
REMARK   51  A    between atoms: _115  and  _118
REMARK   52  A    between atoms: _118  and  _119
REMARK   53  A    between atoms: _119  and  _120
REMARK   54  A    between atoms: _122  and  _124
REMARK   55  A    between atoms: _124  and  _125
REMARK   56  A    between atoms: _124  and  _127
REMARK   57  A    between atoms: _127  and  _128
REMARK   58  A    between atoms: _131  and  _133
REMARK   59  A    between atoms: _133  and  _134
REMARK   60  A    between atoms: _136  and  _138
REMARK   61  A    between atoms: _138  and  _139
REMARK   62  A    between atoms: _141  and  _143
REMARK   63  A    between atoms: _143  and  _144
REMARK   64  A    between atoms: _143  and  _146
REMARK   65  A    between atoms: _146  and  _147
REMARK   66  A    between atoms: _150  and  _152
REMARK   67  A    between atoms: _152  and  _153
REMARK   68  A    between atoms: _155  and  _157
REMARK   69  A    between atoms: _157  and  _158
REMARK   70  A    between atoms: _160  and  _162
REMARK   71  A    between atoms: _162  and  _163
REMARK   72  A    between atoms: _162  and  _165
REMARK   73  A    between atoms: _165  and  _166
REMARK   74  A    between atoms: _172  and  _174
REMARK   75  A    between atoms: _174  and  _175
REMARK   76  A    between atoms: _174  and  _177
REMARK   77  A    between atoms: _177  and  _178
REMARK   78  A    between atoms: _181  and  _183
REMARK   79  A    between atoms: _183  and  _184
REMARK   80  A    between atoms: _183  and  _186
REMARK   81  A    between atoms: _189  and  _191
REMARK   82  A    between atoms: _191  and  _192
REMARK   83  A    between atoms: _191  and  _194
REMARK   84  A    between atoms: _194  and  _195
REMARK   85  A    between atoms: _199  and  _200
REMARK   86  A    between atoms: _205  and  _207
REMARK   87  A    between atoms: _207  and  _208
REMARK   88  A    between atoms: _207  and  _210
REMARK   89  A    between atoms: _210  and  _211
REMARK   90  A    between atoms: _214  and  _215
REMARK   91  A    between atoms: _220  and  _222
REMARK   92  A    between atoms: _222  and  _223
REMARK   93  A    between atoms: _222  and  _225
REMARK   94  A    between atoms: _228  and  _230
REMARK   95  A    between atoms: _230  and  _231
REMARK   96  A    between atoms: _230  and  _233
REMARK   97  A    between atoms: _233  and  _234
REMARK   98  A    between atoms: _239  and  _241
REMARK   99  A    between atoms: _241  and  _242
REMARK  100  A    between atoms: _241  and  _244
REMARK  101  A    between atoms: _244  and  _245
REMARK  102  A    between atoms: _248  and  _250
REMARK  103  A    between atoms: _250  and  _251
REMARK  104  A    between atoms: _250  and  _253
REMARK  105  A    between atoms: _253  and  _254
REMARK  106  A    between atoms: _257  and  _259
REMARK  107  A    between atoms: _259  and  _260
REMARK  108  A    between atoms: _262  and  _264
REMARK  109  A    between atoms: _264  and  _265
REMARK  110  A    between atoms: _264  and  _267
REMARK  111  A    between atoms: _267  and  _268
REMARK  112  A    between atoms: _268  and  _269
REMARK  113  A    between atoms: _269  and  _270
REMARK  114  A    between atoms: _279  and  _281
REMARK  115  A    between atoms: _281  and  _282
REMARK  116  A    between atoms: _281  and  _284
REMARK  117  A    between atoms: _284  and  _285
REMARK  118  A    between atoms: _290  and  _292
REMARK  119  A    between atoms: _292  and  _293
REMARK  120  A    between atoms: _292  and  _295
REMARK  121  A    between atoms: _295  and  _296
REMARK  122  A    between atoms: _296  and  _297
REMARK  123  A    between atoms: _297  and  _298
REMARK  124  A    between atoms: _307  and  _309
REMARK  125  A    between atoms: _309  and  _310
REMARK  126  A    between atoms: _309  and  _312
REMARK  127  A    between atoms: _312  and  _313
REMARK  128  A    between atoms: _316  and  _318
REMARK  129  A    between atoms: _318  and  _319
REMARK  130  A    between atoms: _318  and  _321
REMARK  131  A    between atoms: _321  and  _322
REMARK  132  A    between atoms: _325  and  _327
REMARK  133  A    between atoms: _327  and  _328
REMARK  134  A    between atoms: _327  and  _330
REMARK  135  A    between atoms: _330  and  _331
REMARK  136  A    between atoms: _334  and  _336
REMARK  137  A    between atoms: _336  and  _337
REMARK  138  A    between atoms: _336  and  _339
REMARK  139  A    between atoms: _339  and  _340
REMARK  140  A    between atoms: _343  and  _345
REMARK  141  A    between atoms: _345  and  _346
REMARK  142  A    between atoms: _348  and  _350
REMARK  143  A    between atoms: _350  and  _351
REMARK  144  A    between atoms: _354  and  _356
REMARK  145  A    between atoms: _356  and  _357
REMARK  146  A    between atoms: _356  and  _359
REMARK  147  A    between atoms: _359  and  _360
REMARK  148  A    between atoms: _363  and  _365
REMARK  149  A    between atoms: _365  and  _366
REMARK  150  A    between atoms: _365  and  _368
REMARK  151  A    between atoms: _368  and  _369
REMARK  152  A    between atoms: _372  and  _374
REMARK  153  A    between atoms: _374  and  _375
REMARK  154  A    between atoms: _374  and  _377
REMARK  155  A    between atoms: _377  and  _378
REMARK  156  A    between atoms: _381  and  _383
REMARK  157  A    between atoms: _383  and  _384
REMARK  158  A    between atoms: _383  and  _386
REMARK  159  A    between atoms: _389  and  _391
REMARK  160  A    between atoms: _391  and  _392
REMARK  161  A    between atoms: _391  and  _394
REMARK  162  A    between atoms: _394  and  _395
REMARK  163  A    between atoms: _398  and  _400
REMARK  164  A    between atoms: _400  and  _401
REMARK  165  A    between atoms: _400  and  _403
REMARK  166  A    between atoms: _403  and  _404
REMARK  167  A    between atoms: _404  and  _405
REMARK  168  A    between atoms: _407  and  _409
REMARK  169  A    between atoms: _409  and  _410
REMARK  170  A    between atoms: _409  and  _412
REMARK  171  A    between atoms: _412  and  _413
REMARK  172  A    between atoms: _416  and  _418
REMARK  173  A    between atoms: _418  and  _419
REMARK  174  A    between atoms: _421  and  _423
REMARK  175  A    between atoms: _423  and  _424
REMARK  176  A    between atoms: _426  and  _428
REMARK  177  A    between atoms: _428  and  _429
REMARK  178  A    between atoms: _428  and  _431
REMARK  179  A    between atoms: _431  and  _432
REMARK  180  A    between atoms: _435  and  _437
REMARK  181  A    between atoms: _437  and  _438
REMARK  182  A    between atoms: _440  and  _442
REMARK  183  A    between atoms: _442  and  _443
REMARK  184  A    between atoms: _445  and  _447
REMARK  185  A    between atoms: _447  and  _448
REMARK  186  A    between atoms: _447  and  _450
REMARK  187  A    between atoms: _450  and  _451
REMARK  188  A    between atoms: _457  and  _459
REMARK  189  A    between atoms: _459  and  _460
REMARK  190  A    between atoms: _459  and  _462
REMARK  191  A    between atoms: _462  and  _463
REMARK  192  A    between atoms: _466  and  _468
REMARK  193  A    between atoms: _468  and  _469
REMARK  194  A    between atoms: _468  and  _471
REMARK  195  A    between atoms: _474  and  _476
REMARK  196  A    between atoms: _476  and  _477
REMARK  197  A    between atoms: _476  and  _479
REMARK  198  A    between atoms: _479  and  _480
REMARK  199  A    between atoms: _484  and  _485
REMARK  200  A    between atoms: _490  and  _492
REMARK  201  A    between atoms: _492  and  _493
REMARK  202  A    between atoms: _492  and  _495
REMARK  203  A    between atoms: _495  and  _496
REMARK  204  A    between atoms: _499  and  _500
REMARK  205  A    between atoms: _505  and  _507
REMARK  206  A    between atoms: _507  and  _508
REMARK  207  A    between atoms: _507  and  _510
REMARK  208  A    between atoms: _513  and  _515
REMARK  209  A    between atoms: _515  and  _516
REMARK  210  A    between atoms: _515  and  _518
REMARK  211  A    between atoms: _518  and  _519
REMARK  212  A    between atoms: _524  and  _526
REMARK  213  A    between atoms: _526  and  _527
REMARK  214  A    between atoms: _526  and  _529
REMARK  215  A    between atoms: _529  and  _530
REMARK  216  A    between atoms: _533  and  _535
REMARK  217  A    between atoms: _535  and  _536
REMARK  218  A    between atoms: _535  and  _538
REMARK  219  A    between atoms: _538  and  _539
REMARK  220  A    between atoms: _542  and  _544
REMARK  221  A    between atoms: _544  and  _545
REMARK  222  A    between atoms: _547  and  _549
REMARK  223  A    between atoms: _549  and  _550
REMARK  224  A    between atoms: _549  and  _552
REMARK  225  A    between atoms: _552  and  _553
REMARK  226  A    between atoms: _553  and  _554
REMARK  227  A    between atoms: _554  and  _555
REMARK  228  A    between atoms: _564  and  _566
REMARK  229  A    between atoms: _566  and  _567
REMARK  230  A    between atoms: _566  and  _569
REMARK  231  A    between atoms: _569  and  _570
REMARK                            x       y       z     vdW  Elec       q    Type
REMARK                         _______ _______ _______ _____ _____    ______ ____
ROOT
ATOM      1  CA  ILE A   6      28.182  -0.964  12.938  0.00  0.00    +0.149 C 
ENDROOT
BRANCH   1   3
ATOM      2  C   ASN A   5      29.506  -2.923  12.366  0.00  0.00    +0.241 C 
ATOM      3  N   ILE A   6      29.172  -1.984  13.238  0.00  0.00    -0.297 N 
ATOM      4  H   ILE A   6      29.634  -1.977  14.170  0.00  0.00    +0.150 HD
ATOM      5  O   ASN A   5      29.032  -2.983  11.237  0.00  0.00    -0.273 OA
BRANCH   2   6
ATOM      6  CA  ASN A   5      30.458  -4.004  12.838  0.00  0.00    +0.158 C 
BRANCH   6   9
ATOM      7  C   VAL A   4      28.891  -5.727  13.584  0.00  0.00    +0.241 C 
ATOM      8  O   VAL A   4      28.743  -5.170  14.669  0.00  0.00    -0.273 OA
ATOM      9  N   ASN A   5      29.760  -5.280  12.689  0.00  0.00    -0.297 N 
ATOM     10  H   ASN A   5      29.953  -5.860  11.847  0.00  0.00    +0.150 HD
BRANCH   7  11
ATOM     11  CA  VAL A   4      28.057  -6.957  13.184  0.00  0.00    +0.149 C 
BRANCH  11  13
ATOM     12  C   PRO A   3      27.788  -9.127  14.280  0.00  0.00    +0.241 C 
ATOM     13  N   VAL A   4      27.810  -7.794  14.344  0.00  0.00    -0.297 N 
ATOM     14  H   VAL A   4      27.643  -7.336  15.263  0.00  0.00    +0.150 HD
ATOM     15  O   PRO A   3      28.165  -9.785  13.302  0.00  0.00    -0.273 OA
BRANCH  12  22
ATOM     16  C   SER A   2      28.255  -8.668  17.379  0.00  0.00    +0.246 C 
ATOM     17  O   SER A   2      29.344  -9.193  17.137  0.00  0.00    -0.273 OA
ATOM     18  N   PRO A   3      27.147  -8.975  16.685  0.00  0.00    -0.272 N 
ATOM     19  CD  PRO A   3      25.756  -8.556  16.931  0.00  0.00    +0.094 C 
ATOM     20  CG  PRO A   3      24.992  -9.147  15.780  0.00  0.00    +0.024 C 
ATOM     21  CB  PRO A   3      25.820 -10.286  15.250  0.00  0.00    +0.031 C 
ATOM     22  CA  PRO A   3      27.265  -9.837  15.509  0.00  0.00    +0.152 C 
BRANCH  16  23
ATOM     23  CA  SER A   2      28.142  -7.645  18.507  0.00  0.00    +0.178 C 
BRANCH  23  26
ATOM     24  C   PRO A   1      28.902  -7.745  20.841  0.00  0.00    +0.239 C 
ATOM     25  O   PRO A   1      27.851  -7.276  21.263  0.00  0.00    -0.274 OA
ATOM     26  N   SER A   2      29.125  -7.969  19.547  0.00  0.00    -0.295 N 
ATOM     27  H   SER A   2      30.032  -8.390  19.262  0.00  0.00    +0.150 HD
BRANCH  24  32
ATOM     28  N   PRO A   1      30.711  -6.938  22.372  0.00  0.00    -0.210 NA
ATOM     29  CD  PRO A   1      30.467  -6.748  23.813  0.00  0.00    +0.089 C 
ATOM     30  CG  PRO A   1      29.435  -7.797  24.158  0.00  0.00    +0.021 C 
ATOM     31  CB  PRO A   1      29.456  -8.819  23.061  0.00  0.00    +0.028 C 
ATOM     32  CA  PRO A   1      30.017  -8.105  21.820  0.00  0.00    +0.149 C 
ENDBRANCH  24  32
ENDBRANCH  23  26
BRANCH  23  33
ATOM     33  CB  SER A   2      28.396  -6.223  17.986  0.00  0.00    +0.166 C 
BRANCH  33  34
ATOM     34  OG  SER A   2      27.563  -5.916  16.883  0.00  0.00    -0.380 OA
ATOM     35  H   SER A   2      27.753  -4.995  16.574  0.00  0.00    +0.211 HD
ENDBRANCH  33  34
ENDBRANCH  23  33
ENDBRANCH  16  23
ENDBRANCH  12  22
ENDBRANCH  11  13
BRANCH  11  36
ATOM     36  CB  VAL A   4      26.696  -6.519  12.563  0.00  0.00    +0.027 C 
ATOM     37  CG2 VAL A   4      25.910  -7.729  12.075  0.00  0.00    +0.002 C 
ATOM     38  CG1 VAL A   4      26.900  -5.590  11.387  0.00  0.00    +0.002 C 
ENDBRANCH  11  36
ENDBRANCH   7  11
ENDBRANCH   6   9
BRANCH   6  39
ATOM     39  CB  ASN A   5      31.708  -3.995  11.963  0.00  0.00    +0.114 C 
BRANCH  39  40
ATOM     40  CG  ASN A   5      32.730  -5.008  12.414  0.00  0.00    +0.222 C 
ATOM     41  OD1 ASN A   5      32.970  -5.128  13.609  0.00  0.00    -0.275 OA
ATOM     42  ND2 ASN A   5      33.327  -5.739  11.469  0.00  0.00    -0.329 N 
ATOM     43 HD21 ASN A   5      34.035  -6.453  11.734  0.00  0.00    +0.145 HD
ATOM     44 HD22 ASN A   5      33.084  -5.594  10.468  0.00  0.00    +0.145 HD
ENDBRANCH  39  40
ENDBRANCH   6  39
ENDBRANCH   2   6
ENDBRANCH   1   3
BRANCH   1  45
ATOM     45  C   ILE A   6      28.816   0.429  12.889  0.00  0.00    +0.241 C 
ATOM     46  O   ILE A   6      29.434   0.866  13.854  0.00  0.00    -0.273 OA
ATOM     47  N   ILE A   7      28.669   1.099  11.750  0.00  0.00    -0.297 N 
ATOM     48  H   ILE A   7      28.248   0.603  10.939  0.00  0.00    +0.150 HD
BRANCH  47  49
ATOM     49  CA  ILE A   7      29.065   2.487  11.577  0.00  0.00    +0.149 C 
BRANCH  49  50
ATOM     50  C   ILE A   7      27.860   3.385  11.863  0.00  0.00    +0.241 C 
ATOM     51  N   GLY A   8      27.961   4.129  12.958  0.00  0.00    -0.295 N 
ATOM     52  H   GLY A   8      28.854   4.109  13.491  0.00  0.00    +0.150 HD
ATOM     53  O   ILE A   7      26.901   3.424  11.100  0.00  0.00    -0.273 OA
BRANCH  51  54
ATOM     54  CA  GLY A   8      26.882   4.970  13.445  0.00  0.00    +0.176 C 
BRANCH  54  55
ATOM     55  C   GLY A   8      27.032   6.405  13.000  0.00  0.00    +0.243 C 
ATOM     56  N   ARG A   9      26.102   7.223  13.471  0.00  0.00    -0.297 N 
ATOM     57  H   ARG A   9      25.444   6.884  14.201  0.00  0.00    +0.150 HD
ATOM     58  O   GLY A   8      27.960   6.767  12.253  0.00  0.00    -0.273 OA
BRANCH  56  59
ATOM     59  CA  ARG A   9      25.988   8.590  12.981  0.00  0.00    +0.149 C 
BRANCH  59  60
ATOM     60  C   ARG A   9      27.200   9.441  13.360  0.00  0.00    +0.241 C 
ATOM     61  N   ASN A  10      27.849   9.147  14.481  0.00  0.00    -0.298 N 
ATOM     62  H   ASN A  10      27.512   8.392  15.112  0.00  0.00    +0.150 HD
ATOM     63  O   ARG A   9      27.555  10.380  12.648  0.00  0.00    -0.273 OA
BRANCH  61  64
ATOM     64  CA  ASN A  10      29.049   9.915  14.801  0.00  0.00    +0.146 C 
BRANCH  64  65
ATOM     65  C   ASN A  10      30.065   9.885  13.644  0.00  0.00    +0.227 C 
ATOM     66  O   ASN A  10      30.750  10.879  13.397  0.00  0.00    -0.286 OA
ENDBRANCH  64  65
BRANCH  64  67
ATOM     67  CB  ASN A  10      29.661   9.449  16.124  0.00  0.00    +0.112 C 
BRANCH  67  68
ATOM     68  CG  ASN A  10      30.297   8.082  16.008  0.00  0.00    +0.222 C 
ATOM     69  ND2 ASN A  10      31.564   7.982  16.385  0.00  0.00    -0.329 N 
ATOM     70 HD21 ASN A  10      32.064   8.816  16.755  0.00  0.00    +0.145 HD
ATOM     71 HD22 ASN A  10      32.058   7.070  16.311  0.00  0.00    +0.145 HD
ATOM     72  OD1 ASN A  10      29.655   7.127  15.562  0.00  0.00    -0.275 OA
ENDBRANCH  67  68
ENDBRANCH  64  67
ENDBRANCH  61  64
ENDBRANCH  59  60
BRANCH  59  73
ATOM     73  CB  ARG A   9      24.696   9.244  13.481  0.00  0.00    +0.033 C 
BRANCH  73  74
ATOM     74  CG  ARG A   9      23.412   8.740  12.813  0.00  0.00    +0.045 C 
BRANCH  74  75
ATOM     75  CD  ARG A   9      22.164   9.535  13.240  0.00  0.00    +0.174 C 
BRANCH  75  76
ATOM     76  NE  ARG A   9      21.955   9.459  14.680  0.00  0.00    -0.265 N 
ATOM     77  CZ  ARG A   9      22.283  10.403  15.560  0.00  0.00    +0.342 C 
ATOM     78  NH2 ARG A   9      22.053  10.170  16.835  0.00  0.00    -0.292 N 
ATOM     79 HH21 ARG A   9      22.298  10.887  17.547  0.00  0.00    +0.255 HD
ATOM     80 HH22 ARG A   9      21.626   9.269  17.130  0.00  0.00    +0.255 HD
ATOM     81  NH1 ARG A   9      22.802  11.579  15.201  0.00  0.00    -0.292 N 
ATOM     82 HH11 ARG A   9      23.042  12.285  15.926  0.00  0.00    +0.255 HD
ATOM     83 HH12 ARG A   9      22.966  11.790  14.196  0.00  0.00    +0.255 HD
ATOM     84  HE  ARG A   9      21.512   8.595  15.052  0.00  0.00    +0.259 HD
ENDBRANCH  75  76
ENDBRANCH  74  75
ENDBRANCH  73  74
ENDBRANCH  59  73
ENDBRANCH  56  59
ENDBRANCH  54  55
ENDBRANCH  51  54
ENDBRANCH  49  50
BRANCH  49  85
ATOM     85  CB  ILE A   7      29.557   2.781  10.161  0.00  0.00    +0.027 C 
ATOM     86  CG2 ILE A   7      30.062   4.214  10.044  0.00  0.00    +0.002 C 
BRANCH  85  87
ATOM     87  CG1 ILE A   7      30.661   1.816   9.729  0.00  0.00    +0.002 C 
ATOM     88  CD1 ILE A   7      31.822   1.741  10.674  0.00  0.00    +0.000 C 
ENDBRANCH  85  87
ENDBRANCH  49  85
ENDBRANCH  47  49
ENDBRANCH   1  45
BRANCH   1  89
ATOM     89  CB  ILE A   6      27.083  -1.011  14.015  0.00  0.00    +0.027 C 
ATOM     90  CG2 ILE A   6      26.133   0.109  13.846  0.00  0.00    +0.002 C 
BRANCH  89  91
ATOM     91  CG1 ILE A   6      26.347  -2.347  13.931  0.00  0.00    +0.002 C 
ATOM     92  CD1 ILE A   6      25.914  -2.845  15.291  0.00  0.00    +0.000 C 
ENDBRANCH  89  91
ENDBRANCH   1  89
TORSDOF 33
REMARK  Name = ../refined-set-2016/2fgu/2fgu_pocket.pdb
REMARK  231 active torsions:
REMARK  status: ('A' for Active; 'I' for Inactive)
REMARK    1  A    between atoms: _1  and  _3
REMARK    2  A    between atoms: _3  and  _4
REMARK    3  A    between atoms: _3  and  _6
REMARK    4  A    between atoms: _6  and  _7
REMARK    5  A    between atoms: _7  and  _8
REMARK    6  A    between atoms: _8  and  _9
REMARK    7  A    between atoms: _18  and  _20
REMARK    8  A    between atoms: _20  and  _21
REMARK    9  A    between atoms: _20  and  _23
REMARK   10  A    between atoms: _23  and  _24
REMARK   11  A    between atoms: _27  and  _29
REMARK   12  A    between atoms: _29  and  _30
REMARK   13  A    between atoms: _29  and  _32
REMARK   14  A    between atoms: _32  and  _33
REMARK   15  A    between atoms: _36  and  _38
REMARK   16  A    between atoms: _38  and  _39
REMARK   17  A    between atoms: _38  and  _41
REMARK   18  A    between atoms: _41  and  _42
REMARK   19  A    between atoms: _45  and  _47
REMARK   20  A    between atoms: _47  and  _48
REMARK   21  A    between atoms: _47  and  _50
REMARK   22  A    between atoms: _50  and  _51
REMARK   23  A    between atoms: _54  and  _56
REMARK   24  A    between atoms: _56  and  _57
REMARK   25  A    between atoms: _59  and  _61
REMARK   26  A    between atoms: _61  and  _62
REMARK   27  A    between atoms: _65  and  _67
REMARK   28  A    between atoms: _67  and  _68
REMARK   29  A    between atoms: _67  and  _70
REMARK   30  A    between atoms: _70  and  _71
REMARK   31  A    between atoms: _74  and  _76
REMARK   32  A    between atoms: _76  and  _77
REMARK   33  A    between atoms: _76  and  _79
REMARK   34  A    between atoms: _79  and  _80
REMARK   35  A    between atoms: _83  and  _85
REMARK   36  A    between atoms: _85  and  _86
REMARK   37  A    between atoms: _85  and  _88
REMARK   38  A    between atoms: _88  and  _89
REMARK   39  A    between atoms: _92  and  _94
REMARK   40  A    between atoms: _94  and  _95
REMARK   41  A    between atoms: _94  and  _97
REMARK   42  A    between atoms: _100  and  _102
REMARK   43  A    between atoms: _102  and  _103
REMARK   44  A    between atoms: _102  and  _105
REMARK   45  A    between atoms: _105  and  _106
REMARK   46  A    between atoms: _106  and  _107
REMARK   47  A    between atoms: _107  and  _108
REMARK   48  A    between atoms: _108  and  _109
REMARK   49  A    between atoms: _113  and  _115
REMARK   50  A    between atoms: _115  and  _116
REMARK   51  A    between atoms: _115  and  _118
REMARK   52  A    between atoms: _118  and  _119
REMARK   53  A    between atoms: _119  and  _120
REMARK   54  A    between atoms: _122  and  _124
REMARK   55  A    between atoms: _124  and  _125
REMARK   56  A    between atoms: _124  and  _127
REMARK   57  A    between atoms: _127  and  _128
REMARK   58  A    between atoms: _131  and  _133
REMARK   59  A    between atoms: _133  and  _134
REMARK   60  A    between atoms: _136  and  _138
REMARK   61  A    between atoms: _138  and  _139
REMARK   62  A    between atoms: _141  and  _143
REMARK   63  A    between atoms: _143  and  _144
REMARK   64  A    between atoms: _143  and  _146
REMARK   65  A    between atoms: _146  and  _147
REMARK   66  A    between atoms: _150  and  _152
REMARK   67  A    between atoms: _152  and  _153
REMARK   68  A    between atoms: _155  and  _157
REMARK   69  A    between atoms: _157  and  _158
REMARK   70  A    between atoms: _160  and  _162
REMARK   71  A    between atoms: _162  and  _163
REMARK   72  A    between atoms: _162  and  _165
REMARK   73  A    between atoms: _165  and  _166
REMARK   74  A    between atoms: _172  and  _174
REMARK   75  A    between atoms: _174  and  _175
REMARK   76  A    between atoms: _174  and  _177
REMARK   77  A    between atoms: _177  and  _178
REMARK   78  A    between atoms: _181  and  _183
REMARK   79  A    between atoms: _183  and  _184
REMARK   80  A    between atoms: _183  and  _186
REMARK   81  A    between atoms: _189  and  _191
REMARK   82  A    between atoms: _191  and  _192
REMARK   83  A    between atoms: _191  and  _194
REMARK   84  A    between atoms: _194  and  _195
REMARK   85  A    between atoms: _199  and  _200
REMARK   86  A    between atoms: _205  and  _207
REMARK   87  A    between atoms: _207  and  _208
REMARK   88  A    between atoms: _207  and  _210
REMARK   89  A    between atoms: _210  and  _211
REMARK   90  A    between atoms: _214  and  _215
REMARK   91  A    between atoms: _220  and  _222
REMARK   92  A    between atoms: _222  and  _223
REMARK   93  A    between atoms: _222  and  _225
REMARK   94  A    between atoms: _228  and  _230
REMARK   95  A    between atoms: _230  and  _231
REMARK   96  A    between atoms: _230  and  _233
REMARK   97  A    between atoms: _233  and  _234
REMARK   98  A    between atoms: _239  and  _241
REMARK   99  A    between atoms: _241  and  _242
REMARK  100  A    between atoms: _241  and  _244
REMARK  101  A    between atoms: _244  and  _245
REMARK  102  A    between atoms: _248  and  _250
REMARK  103  A    between atoms: _250  and  _251
REMARK  104  A    between atoms: _250  and  _253
REMARK  105  A    between atoms: _253  and  _254
REMARK  106  A    between atoms: _257  and  _259
REMARK  107  A    between atoms: _259  and  _260
REMARK  108  A    between atoms: _262  and  _264
REMARK  109  A    between atoms: _264  and  _265
REMARK  110  A    between atoms: _264  and  _267
REMARK  111  A    between atoms: _267  and  _268
REMARK  112  A    between atoms: _268  and  _269
REMARK  113  A    between atoms: _269  and  _270
REMARK  114  A    between atoms: _279  and  _281
REMARK  115  A    between atoms: _281  and  _282
REMARK  116  A    between atoms: _281  and  _284
REMARK  117  A    between atoms: _284  and  _285
REMARK  118  A    between atoms: _290  and  _292
REMARK  119  A    between atoms: _292  and  _293
REMARK  120  A    between atoms: _292  and  _295
REMARK  121  A    between atoms: _295  and  _296
REMARK  122  A    between atoms: _296  and  _297
REMARK  123  A    between atoms: _297  and  _298
REMARK  124  A    between atoms: _307  and  _309
REMARK  125  A    between atoms: _309  and  _310
REMARK  126  A    between atoms: _309  and  _312
REMARK  127  A    between atoms: _312  and  _313
REMARK  128  A    between atoms: _316  and  _318
REMARK  129  A    between atoms: _318  and  _319
REMARK  130  A    between atoms: _318  and  _321
REMARK  131  A    between atoms: _321  and  _322
REMARK  132  A    between atoms: _325  and  _327
REMARK  133  A    between atoms: _327  and  _328
REMARK  134  A    between atoms: _327  and  _330
REMARK  135  A    between atoms: _330  and  _331
REMARK  136  A    between atoms: _334  and  _336
REMARK  137  A    between atoms: _336  and  _337
REMARK  138  A    between atoms: _336  and  _339
REMARK  139  A    between atoms: _339  and  _340
REMARK  140  A    between atoms: _343  and  _345
REMARK  141  A    between atoms: _345  and  _346
REMARK  142  A    between atoms: _348  and  _350
REMARK  143  A    between atoms: _350  and  _351
REMARK  144  A    between atoms: _354  and  _356
REMARK  145  A    between atoms: _356  and  _357
REMARK  146  A    between atoms: _356  and  _359
REMARK  147  A    between atoms: _359  and  _360
REMARK  148  A    between atoms: _363  and  _365
REMARK  149  A    between atoms: _365  and  _366
REMARK  150  A    between atoms: _365  and  _368
REMARK  151  A    between atoms: _368  and  _369
REMARK  152  A    between atoms: _372  and  _374
REMARK  153  A    between atoms: _374  and  _375
REMARK  154  A    between atoms: _374  and  _377
REMARK  155  A    between atoms: _377  and  _378
REMARK  156  A    between atoms: _381  and  _383
REMARK  157  A    between atoms: _383  and  _384
REMARK  158  A    between atoms: _383  and  _386
REMARK  159  A    between atoms: _389  and  _391
REMARK  160  A    between atoms: _391  and  _392
REMARK  161  A    between atoms: _391  and  _394
REMARK  162  A    between atoms: _394  and  _395
REMARK  163  A    between atoms: _398  and  _400
REMARK  164  A    between atoms: _400  and  _401
REMARK  165  A    between atoms: _400  and  _403
REMARK  166  A    between atoms: _403  and  _404
REMARK  167  A    between atoms: _404  and  _405
REMARK  168  A    between atoms: _407  and  _409
REMARK  169  A    between atoms: _409  and  _410
REMARK  170  A    between atoms: _409  and  _412
REMARK  171  A    between atoms: _412  and  _413
REMARK  172  A    between atoms: _416  and  _418
REMARK  173  A    between atoms: _418  and  _419
REMARK  174  A    between atoms: _421  and  _423
REMARK  175  A    between atoms: _423  and  _424
REMARK  176  A    between atoms: _426  and  _428
REMARK  177  A    between atoms: _428  and  _429
REMARK  178  A    between atoms: _428  and  _431
REMARK  179  A    between atoms: _431  and  _432
REMARK  180  A    between atoms: _435  and  _437
REMARK  181  A    between atoms: _437  and  _438
REMARK  182  A    between atoms: _440  and  _442
REMARK  183  A    between atoms: _442  and  _443
REMARK  184  A    between atoms: _445  and  _447
REMARK  185  A    between atoms: _447  and  _448
REMARK  186  A    between atoms: _447  and  _450
REMARK  187  A    between atoms: _450  and  _451
REMARK  188  A    between atoms: _457  and  _459
REMARK  189  A    between atoms: _459  and  _460
REMARK  190  A    between atoms: _459  and  _462
REMARK  191  A    between atoms: _462  and  _463
REMARK  192  A    between atoms: _466  and  _468
REMARK  193  A    between atoms: _468  and  _469
REMARK  194  A    between atoms: _468  and  _471
REMARK  195  A    between atoms: _474  and  _476
REMARK  196  A    between atoms: _476  and  _477
REMARK  197  A    between atoms: _476  and  _479
REMARK  198  A    between atoms: _479  and  _480
REMARK  199  A    between atoms: _484  and  _485
REMARK  200  A    between atoms: _490  and  _492
REMARK  201  A    between atoms: _492  and  _493
REMARK  202  A    between atoms: _492  and  _495
REMARK  203  A    between atoms: _495  and  _496
REMARK  204  A    between atoms: _499  and  _500
REMARK  205  A    between atoms: _505  and  _507
REMARK  206  A    between atoms: _507  and  _508
REMARK  207  A    between atoms: _507  and  _510
REMARK  208  A    between atoms: _513  and  _515
REMARK  209  A    between atoms: _515  and  _516
REMARK  210  A    between atoms: _515  and  _518
REMARK  211  A    between atoms: _518  and  _519
REMARK  212  A    between atoms: _524  and  _526
REMARK  213  A    between atoms: _526  and  _527
REMARK  214  A    between atoms: _526  and  _529
REMARK  215  A    between atoms: _529  and  _530
REMARK  216  A    between atoms: _533  and  _535
REMARK  217  A    between atoms: _535  and  _536
REMARK  218  A    between atoms: _535  and  _538
REMARK  219  A    between atoms: _538  and  _539
REMARK  220  A    between atoms: _542  and  _544
REMARK  221  A    between atoms: _544  and  _545
REMARK  222  A    between atoms: _547  and  _549
REMARK  223  A    between atoms: _549  and  _550
REMARK  224  A    between atoms: _549  and  _552
REMARK  225  A    between atoms: _552  and  _553
REMARK  226  A    between atoms: _553  and  _554
REMARK  227  A    between atoms: _554  and  _555
REMARK  228  A    between atoms: _564  and  _566
REMARK  229  A    between atoms: _566  and  _567
REMARK  230  A    between atoms: _566  and  _569
REMARK  231  A    between atoms: _569  and  _570
REMARK                            x       y       z     vdW  Elec       q    Type
REMARK                         _______ _______ _______ _____ _____    ______ ____
ROOT
ATOM      1  O   HOH     1      20.441  -3.419   7.277  0.00  0.00    +0.000 OA
ENDROOT
TORSDOF 0
REMARK  Name = ../refined-set-2016/2fgu/2fgu_pocket.pdb
REMARK  231 active torsions:
REMARK  status: ('A' for Active; 'I' for Inactive)
REMARK    1  A    between atoms: _1  and  _3
REMARK    2  A    between atoms: _3  and  _4
REMARK    3  A    between atoms: _3  and  _6
REMARK    4  A    between atoms: _6  and  _7
REMARK    5  A    between atoms: _7  and  _8
REMARK    6  A    between atoms: _8  and  _9
REMARK    7  A    between atoms: _18  and  _20
REMARK    8  A    between atoms: _20  and  _21
REMARK    9  A    between atoms: _20  and  _23
REMARK   10  A    between atoms: _23  and  _24
REMARK   11  A    between atoms: _27  and  _29
REMARK   12  A    between atoms: _29  and  _30
REMARK   13  A    between atoms: _29  and  _32
REMARK   14  A    between atoms: _32  and  _33
REMARK   15  A    between atoms: _36  and  _38
REMARK   16  A    between atoms: _38  and  _39
REMARK   17  A    between atoms: _38  and  _41
REMARK   18  A    between atoms: _41  and  _42
REMARK   19  A    between atoms: _45  and  _47
REMARK   20  A    between atoms: _47  and  _48
REMARK   21  A    between atoms: _47  and  _50
REMARK   22  A    between atoms: _50  and  _51
REMARK   23  A    between atoms: _54  and  _56
REMARK   24  A    between atoms: _56  and  _57
REMARK   25  A    between atoms: _59  and  _61
REMARK   26  A    between atoms: _61  and  _62
REMARK   27  A    between atoms: _65  and  _67
REMARK   28  A    between atoms: _67  and  _68
REMARK   29  A    between atoms: _67  and  _70
REMARK   30  A    between atoms: _70  and  _71
REMARK   31  A    between atoms: _74  and  _76
REMARK   32  A    between atoms: _76  and  _77
REMARK   33  A    between atoms: _76  and  _79
REMARK   34  A    between atoms: _79  and  _80
REMARK   35  A    between atoms: _83  and  _85
REMARK   36  A    between atoms: _85  and  _86
REMARK   37  A    between atoms: _85  and  _88
REMARK   38  A    between atoms: _88  and  _89
REMARK   39  A    between atoms: _92  and  _94
REMARK   40  A    between atoms: _94  and  _95
REMARK   41  A    between atoms: _94  and  _97
REMARK   42  A    between atoms: _100  and  _102
REMARK   43  A    between atoms: _102  and  _103
REMARK   44  A    between atoms: _102  and  _105
REMARK   45  A    between atoms: _105  and  _106
REMARK   46  A    between atoms: _106  and  _107
REMARK   47  A    between atoms: _107  and  _108
REMARK   48  A    between atoms: _108  and  _109
REMARK   49  A    between atoms: _113  and  _115
REMARK   50  A    between atoms: _115  and  _116
REMARK   51  A    between atoms: _115  and  _118
REMARK   52  A    between atoms: _118  and  _119
REMARK   53  A    between atoms: _119  and  _120
REMARK   54  A    between atoms: _122  and  _124
REMARK   55  A    between atoms: _124  and  _125
REMARK   56  A    between atoms: _124  and  _127
REMARK   57  A    between atoms: _127  and  _128
REMARK   58  A    between atoms: _131  and  _133
REMARK   59  A    between atoms: _133  and  _134
REMARK   60  A    between atoms: _136  and  _138
REMARK   61  A    between atoms: _138  and  _139
REMARK   62  A    between atoms: _141  and  _143
REMARK   63  A    between atoms: _143  and  _144
REMARK   64  A    between atoms: _143  and  _146
REMARK   65  A    between atoms: _146  and  _147
REMARK   66  A    between atoms: _150  and  _152
REMARK   67  A    between atoms: _152  and  _153
REMARK   68  A    between atoms: _155  and  _157
REMARK   69  A    between atoms: _157  and  _158
REMARK   70  A    between atoms: _160  and  _162
REMARK   71  A    between atoms: _162  and  _163
REMARK   72  A    between atoms: _162  and  _165
REMARK   73  A    between atoms: _165  and  _166
REMARK   74  A    between atoms: _172  and  _174
REMARK   75  A    between atoms: _174  and  _175
REMARK   76  A    between atoms: _174  and  _177
REMARK   77  A    between atoms: _177  and  _178
REMARK   78  A    between atoms: _181  and  _183
REMARK   79  A    between atoms: _183  and  _184
REMARK   80  A    between atoms: _183  and  _186
REMARK   81  A    between atoms: _189  and  _191
REMARK   82  A    between atoms: _191  and  _192
REMARK   83  A    between atoms: _191  and  _194
REMARK   84  A    between atoms: _194  and  _195
REMARK   85  A    between atoms: _199  and  _200
REMARK   86  A    between atoms: _205  and  _207
REMARK   87  A    between atoms: _207  and  _208
REMARK   88  A    between atoms: _207  and  _210
REMARK   89  A    between atoms: _210  and  _211
REMARK   90  A    between atoms: _214  and  _215
REMARK   91  A    between atoms: _220  and  _222
REMARK   92  A    between atoms: _222  and  _223
REMARK   93  A    between atoms: _222  and  _225
REMARK   94  A    between atoms: _228  and  _230
REMARK   95  A    between atoms: _230  and  _231
REMARK   96  A    between atoms: _230  and  _233
REMARK   97  A    between atoms: _233  and  _234
REMARK   98  A    between atoms: _239  and  _241
REMARK   99  A    between atoms: _241  and  _242
REMARK  100  A    between atoms: _241  and  _244
REMARK  101  A    between atoms: _244  and  _245
REMARK  102  A    between atoms: _248  and  _250
REMARK  103  A    between atoms: _250  and  _251
REMARK  104  A    between atoms: _250  and  _253
REMARK  105  A    between atoms: _253  and  _254
REMARK  106  A    between atoms: _257  and  _259
REMARK  107  A    between atoms: _259  and  _260
REMARK  108  A    between atoms: _262  and  _264
REMARK  109  A    between atoms: _264  and  _265
REMARK  110  A    between atoms: _264  and  _267
REMARK  111  A    between atoms: _267  and  _268
REMARK  112  A    between atoms: _268  and  _269
REMARK  113  A    between atoms: _269  and  _270
REMARK  114  A    between atoms: _279  and  _281
REMARK  115  A    between atoms: _281  and  _282
REMARK  116  A    between atoms: _281  and  _284
REMARK  117  A    between atoms: _284  and  _285
REMARK  118  A    between atoms: _290  and  _292
REMARK  119  A    between atoms: _292  and  _293
REMARK  120  A    between atoms: _292  and  _295
REMARK  121  A    between atoms: _295  and  _296
REMARK  122  A    between atoms: _296  and  _297
REMARK  123  A    between atoms: _297  and  _298
REMARK  124  A    between atoms: _307  and  _309
REMARK  125  A    between atoms: _309  and  _310
REMARK  126  A    between atoms: _309  and  _312
REMARK  127  A    between atoms: _312  and  _313
REMARK  128  A    between atoms: _316  and  _318
REMARK  129  A    between atoms: _318  and  _319
REMARK  130  A    between atoms: _318  and  _321
REMARK  131  A    between atoms: _321  and  _322
REMARK  132  A    between atoms: _325  and  _327
REMARK  133  A    between atoms: _327  and  _328
REMARK  134  A    between atoms: _327  and  _330
REMARK  135  A    between atoms: _330  and  _331
REMARK  136  A    between atoms: _334  and  _336
REMARK  137  A    between atoms: _336  and  _337
REMARK  138  A    between atoms: _336  and  _339
REMARK  139  A    between atoms: _339  and  _340
REMARK  140  A    between atoms: _343  and  _345
REMARK  141  A    between atoms: _345  and  _346
REMARK  142  A    between atoms: _348  and  _350
REMARK  143  A    between atoms: _350  and  _351
REMARK  144  A    between atoms: _354  and  _356
REMARK  145  A    between atoms: _356  and  _357
REMARK  146  A    between atoms: _356  and  _359
REMARK  147  A    between atoms: _359  and  _360
REMARK  148  A    between atoms: _363  and  _365
REMARK  149  A    between atoms: _365  and  _366
REMARK  150  A    between atoms: _365  and  _368
REMARK  151  A    between atoms: _368  and  _369
REMARK  152  A    between atoms: _372  and  _374
REMARK  153  A    between atoms: _374  and  _375
REMARK  154  A    between atoms: _374  and  _377
REMARK  155  A    between atoms: _377  and  _378
REMARK  156  A    between atoms: _381  and  _383
REMARK  157  A    between atoms: _383  and  _384
REMARK  158  A    between atoms: _383  and  _386
REMARK  159  A    between atoms: _389  and  _391
REMARK  160  A    between atoms: _391  and  _392
REMARK  161  A    between atoms: _391  and  _394
REMARK  162  A    between atoms: _394  and  _395
REMARK  163  A    between atoms: _398  and  _400
REMARK  164  A    between atoms: _400  and  _401
REMARK  165  A    between atoms: _400  and  _403
REMARK  166  A    between atoms: _403  and  _404
REMARK  167  A    between atoms: _404  and  _405
REMARK  168  A    between atoms: _407  and  _409
REMARK  169  A    between atoms: _409  and  _410
REMARK  170  A    between atoms: _409  and  _412
REMARK  171  A    between atoms: _412  and  _413
REMARK  172  A    between atoms: _416  and  _418
REMARK  173  A    between atoms: _418  and  _419
REMARK  174  A    between atoms: _421  and  _423
REMARK  175  A    between atoms: _423  and  _424
REMARK  176  A    between atoms: _426  and  _428
REMARK  177  A    between atoms: _428  and  _429
REMARK  178  A    between atoms: _428  and  _431
REMARK  179  A    between atoms: _431  and  _432
REMARK  180  A    between atoms: _435  and  _437
REMARK  181  A    between atoms: _437  and  _438
REMARK  182  A    between atoms: _440  and  _442
REMARK  183  A    between atoms: _442  and  _443
REMARK  184  A    between atoms: _445  and  _447
REMARK  185  A    between atoms: _447  and  _448
REMARK  186  A    between atoms: _447  and  _450
REMARK  187  A    between atoms: _450  and  _451
REMARK  188  A    between atoms: _457  and  _459
REMARK  189  A    between atoms: _459  and  _460
REMARK  190  A    between atoms: _459  and  _462
REMARK  191  A    between atoms: _462  and  _463
REMARK  192  A    between atoms: _466  and  _468
REMARK  193  A    between atoms: _468  and  _469
REMARK  194  A    between atoms: _468  and  _471
REMARK  195  A    between atoms: _474  and  _476
REMARK  196  A    between atoms: _476  and  _477
REMARK  197  A    between atoms: _476  and  _479
REMARK  198  A    between atoms: _479  and  _480
REMARK  199  A    between atoms: _484  and  _485
REMARK  200  A    between atoms: _490  and  _492
REMARK  201  A    between atoms: _492  and  _493
REMARK  202  A    between atoms: _492  and  _495
REMARK  203  A    between atoms: _495  and  _496
REMARK  204  A    between atoms: _499  and  _500
REMARK  205  A    between atoms: _505  and  _507
REMARK  206  A    between atoms: _507  and  _508
REMARK  207  A    between atoms: _507  and  _510
REMARK  208  A    between atoms: _513  and  _515
REMARK  209  A    between atoms: _515  and  _516
REMARK  210  A    between atoms: _515  and  _518
REMARK  211  A    between atoms: _518  and  _519
REMARK  212  A    between atoms: _524  and  _526
REMARK  213  A    between atoms: _526  and  _527
REMARK  214  A    between atoms: _526  and  _529
REMARK  215  A    between atoms: _529  and  _530
REMARK  216  A    between atoms: _533  and  _535
REMARK  217  A    between atoms: _535  and  _536
REMARK  218  A    between atoms: _535  and  _538
REMARK  219  A    between atoms: _538  and  _539
REMARK  220  A    between atoms: _542  and  _544
REMARK  221  A    between atoms: _544  and  _545
REMARK  222  A    between atoms: _547  and  _549
REMARK  223  A    between atoms: _549  and  _550
REMARK  224  A    between atoms: _549  and  _552
REMARK  225  A    between atoms: _552  and  _553
REMARK  226  A    between atoms: _553  and  _554
REMARK  227  A    between atoms: _554  and  _555
REMARK  228  A    between atoms: _564  and  _566
REMARK  229  A    between atoms: _566  and  _567
REMARK  230  A    between atoms: _566  and  _569
REMARK  231  A    between atoms: _569  and  _570
REMARK                            x       y       z     vdW  Elec       q    Type
REMARK                         _______ _______ _______ _____ _____    ______ ____
ROOT
ATOM      1  O   HOH     1      20.027  -2.898  18.414  0.00  0.00    +0.000 OA
ENDROOT
TORSDOF 0
REMARK  Name = ../refined-set-2016/2fgu/2fgu_pocket.pdb
REMARK  231 active torsions:
REMARK  status: ('A' for Active; 'I' for Inactive)
REMARK    1  A    between atoms: _1  and  _3
REMARK    2  A    between atoms: _3  and  _4
REMARK    3  A    between atoms: _3  and  _6
REMARK    4  A    between atoms: _6  and  _7
REMARK    5  A    between atoms: _7  and  _8
REMARK    6  A    between atoms: _8  and  _9
REMARK    7  A    between atoms: _18  and  _20
REMARK    8  A    between atoms: _20  and  _21
REMARK    9  A    between atoms: _20  and  _23
REMARK   10  A    between atoms: _23  and  _24
REMARK   11  A    between atoms: _27  and  _29
REMARK   12  A    between atoms: _29  and  _30
REMARK   13  A    between atoms: _29  and  _32
REMARK   14  A    between atoms: _32  and  _33
REMARK   15  A    between atoms: _36  and  _38
REMARK   16  A    between atoms: _38  and  _39
REMARK   17  A    between atoms: _38  and  _41
REMARK   18  A    between atoms: _41  and  _42
REMARK   19  A    between atoms: _45  and  _47
REMARK   20  A    between atoms: _47  and  _48
REMARK   21  A    between atoms: _47  and  _50
REMARK   22  A    between atoms: _50  and  _51
REMARK   23  A    between atoms: _54  and  _56
REMARK   24  A    between atoms: _56  and  _57
REMARK   25  A    between atoms: _59  and  _61
REMARK   26  A    between atoms: _61  and  _62
REMARK   27  A    between atoms: _65  and  _67
REMARK   28  A    between atoms: _67  and  _68
REMARK   29  A    between atoms: _67  and  _70
REMARK   30  A    between atoms: _70  and  _71
REMARK   31  A    between atoms: _74  and  _76
REMARK   32  A    between atoms: _76  and  _77
REMARK   33  A    between atoms: _76  and  _79
REMARK   34  A    between atoms: _79  and  _80
REMARK   35  A    between atoms: _83  and  _85
REMARK   36  A    between atoms: _85  and  _86
REMARK   37  A    between atoms: _85  and  _88
REMARK   38  A    between atoms: _88  and  _89
REMARK   39  A    between atoms: _92  and  _94
REMARK   40  A    between atoms: _94  and  _95
REMARK   41  A    between atoms: _94  and  _97
REMARK   42  A    between atoms: _100  and  _102
REMARK   43  A    between atoms: _102  and  _103
REMARK   44  A    between atoms: _102  and  _105
REMARK   45  A    between atoms: _105  and  _106
REMARK   46  A    between atoms: _106  and  _107
REMARK   47  A    between atoms: _107  and  _108
REMARK   48  A    between atoms: _108  and  _109
REMARK   49  A    between atoms: _113  and  _115
REMARK   50  A    between atoms: _115  and  _116
REMARK   51  A    between atoms: _115  and  _118
REMARK   52  A    between atoms: _118  and  _119
REMARK   53  A    between atoms: _119  and  _120
REMARK   54  A    between atoms: _122  and  _124
REMARK   55  A    between atoms: _124  and  _125
REMARK   56  A    between atoms: _124  and  _127
REMARK   57  A    between atoms: _127  and  _128
REMARK   58  A    between atoms: _131  and  _133
REMARK   59  A    between atoms: _133  and  _134
REMARK   60  A    between atoms: _136  and  _138
REMARK   61  A    between atoms: _138  and  _139
REMARK   62  A    between atoms: _141  and  _143
REMARK   63  A    between atoms: _143  and  _144
REMARK   64  A    between atoms: _143  and  _146
REMARK   65  A    between atoms: _146  and  _147
REMARK   66  A    between atoms: _150  and  _152
REMARK   67  A    between atoms: _152  and  _153
REMARK   68  A    between atoms: _155  and  _157
REMARK   69  A    between atoms: _157  and  _158
REMARK   70  A    between atoms: _160  and  _162
REMARK   71  A    between atoms: _162  and  _163
REMARK   72  A    between atoms: _162  and  _165
REMARK   73  A    between atoms: _165  and  _166
REMARK   74  A    between atoms: _172  and  _174
REMARK   75  A    between atoms: _174  and  _175
REMARK   76  A    between atoms: _174  and  _177
REMARK   77  A    between atoms: _177  and  _178
REMARK   78  A    between atoms: _181  and  _183
REMARK   79  A    between atoms: _183  and  _184
REMARK   80  A    between atoms: _183  and  _186
REMARK   81  A    between atoms: _189  and  _191
REMARK   82  A    between atoms: _191  and  _192
REMARK   83  A    between atoms: _191  and  _194
REMARK   84  A    between atoms: _194  and  _195
REMARK   85  A    between atoms: _199  and  _200
REMARK   86  A    between atoms: _205  and  _207
REMARK   87  A    between atoms: _207  and  _208
REMARK   88  A    between atoms: _207  and  _210
REMARK   89  A    between atoms: _210  and  _211
REMARK   90  A    between atoms: _214  and  _215
REMARK   91  A    between atoms: _220  and  _222
REMARK   92  A    between atoms: _222  and  _223
REMARK   93  A    between atoms: _222  and  _225
REMARK   94  A    between atoms: _228  and  _230
REMARK   95  A    between atoms: _230  and  _231
REMARK   96  A    between atoms: _230  and  _233
REMARK   97  A    between atoms: _233  and  _234
REMARK   98  A    between atoms: _239  and  _241
REMARK   99  A    between atoms: _241  and  _242
REMARK  100  A    between atoms: _241  and  _244
REMARK  101  A    between atoms: _244  and  _245
REMARK  102  A    between atoms: _248  and  _250
REMARK  103  A    between atoms: _250  and  _251
REMARK  104  A    between atoms: _250  and  _253
REMARK  105  A    between atoms: _253  and  _254
REMARK  106  A    between atoms: _257  and  _259
REMARK  107  A    between atoms: _259  and  _260
REMARK  108  A    between atoms: _262  and  _264
REMARK  109  A    between atoms: _264  and  _265
REMARK  110  A    between atoms: _264  and  _267
REMARK  111  A    between atoms: _267  and  _268
REMARK  112  A    between atoms: _268  and  _269
REMARK  113  A    between atoms: _269  and  _270
REMARK  114  A    between atoms: _279  and  _281
REMARK  115  A    between atoms: _281  and  _282
REMARK  116  A    between atoms: _281  and  _284
REMARK  117  A    between atoms: _284  and  _285
REMARK  118  A    between atoms: _290  and  _292
REMARK  119  A    between atoms: _292  and  _293
REMARK  120  A    between atoms: _292  and  _295
REMARK  121  A    between atoms: _295  and  _296
REMARK  122  A    between atoms: _296  and  _297
REMARK  123  A    between atoms: _297  and  _298
REMARK  124  A    between atoms: _307  and  _309
REMARK  125  A    between atoms: _309  and  _310
REMARK  126  A    between atoms: _309  and  _312
REMARK  127  A    between atoms: _312  and  _313
REMARK  128  A    between atoms: _316  and  _318
REMARK  129  A    between atoms: _318  and  _319
REMARK  130  A    between atoms: _318  and  _321
REMARK  131  A    between atoms: _321  and  _322
REMARK  132  A    between atoms: _325  and  _327
REMARK  133  A    between atoms: _327  and  _328
REMARK  134  A    between atoms: _327  and  _330
REMARK  135  A    between atoms: _330  and  _331
REMARK  136  A    between atoms: _334  and  _336
REMARK  137  A    between atoms: _336  and  _337
REMARK  138  A    between atoms: _336  and  _339
REMARK  139  A    between atoms: _339  and  _340
REMARK  140  A    between atoms: _343  and  _345
REMARK  141  A    between atoms: _345  and  _346
REMARK  142  A    between atoms: _348  and  _350
REMARK  143  A    between atoms: _350  and  _351
REMARK  144  A    between atoms: _354  and  _356
REMARK  145  A    between atoms: _356  and  _357
REMARK  146  A    between atoms: _356  and  _359
REMARK  147  A    between atoms: _359  and  _360
REMARK  148  A    between atoms: _363  and  _365
REMARK  149  A    between atoms: _365  and  _366
REMARK  150  A    between atoms: _365  and  _368
REMARK  151  A    between atoms: _368  and  _369
REMARK  152  A    between atoms: _372  and  _374
REMARK  153  A    between atoms: _374  and  _375
REMARK  154  A    between atoms: _374  and  _377
REMARK  155  A    between atoms: _377  and  _378
REMARK  156  A    between atoms: _381  and  _383
REMARK  157  A    between atoms: _383  and  _384
REMARK  158  A    between atoms: _383  and  _386
REMARK  159  A    between atoms: _389  and  _391
REMARK  160  A    between atoms: _391  and  _392
REMARK  161  A    between atoms: _391  and  _394
REMARK  162  A    between atoms: _394  and  _395
REMARK  163  A    between atoms: _398  and  _400
REMARK  164  A    between atoms: _400  and  _401
REMARK  165  A    between atoms: _400  and  _403
REMARK  166  A    between atoms: _403  and  _404
REMARK  167  A    between atoms: _404  and  _405
REMARK  168  A    between atoms: _407  and  _409
REMARK  169  A    between atoms: _409  and  _410
REMARK  170  A    between atoms: _409  and  _412
REMARK  171  A    between atoms: _412  and  _413
REMARK  172  A    between atoms: _416  and  _418
REMARK  173  A    between atoms: _418  and  _419
REMARK  174  A    between atoms: _421  and  _423
REMARK  175  A    between atoms: _423  and  _424
REMARK  176  A    between atoms: _426  and  _428
REMARK  177  A    between atoms: _428  and  _429
REMARK  178  A    between atoms: _428  and  _431
REMARK  179  A    between atoms: _431  and  _432
REMARK  180  A    between atoms: _435  and  _437
REMARK  181  A    between atoms: _437  and  _438
REMARK  182  A    between atoms: _440  and  _442
REMARK  183  A    between atoms: _442  and  _443
REMARK  184  A    between atoms: _445  and  _447
REMARK  185  A    between atoms: _447  and  _448
REMARK  186  A    between atoms: _447  and  _450
REMARK  187  A    between atoms: _450  and  _451
REMARK  188  A    between atoms: _457  and  _459
REMARK  189  A    between atoms: _459  and  _460
REMARK  190  A    between atoms: _459  and  _462
REMARK  191  A    between atoms: _462  and  _463
REMARK  192  A    between atoms: _466  and  _468
REMARK  193  A    between atoms: _468  and  _469
REMARK  194  A    between atoms: _468  and  _471
REMARK  195  A    between atoms: _474  and  _476
REMARK  196  A    between atoms: _476  and  _477
REMARK  197  A    between atoms: _476  and  _479
REMARK  198  A    between atoms: _479  and  _480
REMARK  199  A    between atoms: _484  and  _485
REMARK  200  A    between atoms: _490  and  _492
REMARK  201  A    between atoms: _492  and  _493
REMARK  202  A    between atoms: _492  and  _495
REMARK  203  A    between atoms: _495  and  _496
REMARK  204  A    between atoms: _499  and  _500
REMARK  205  A    between atoms: _505  and  _507
REMARK  206  A    between atoms: _507  and  _508
REMARK  207  A    between atoms: _507  and  _510
REMARK  208  A    between atoms: _513  and  _515
REMARK  209  A    between atoms: _515  and  _516
REMARK  210  A    between atoms: _515  and  _518
REMARK  211  A    between atoms: _518  and  _519
REMARK  212  A    between atoms: _524  and  _526
REMARK  213  A    between atoms: _526  and  _527
REMARK  214  A    between atoms: _526  and  _529
REMARK  215  A    between atoms: _529  and  _530
REMARK  216  A    between atoms: _533  and  _535
REMARK  217  A    between atoms: _535  and  _536
REMARK  218  A    between atoms: _535  and  _538
REMARK  219  A    between atoms: _538  and  _539
REMARK  220  A    between atoms: _542  and  _544
REMARK  221  A    between atoms: _544  and  _545
REMARK  222  A    between atoms: _547  and  _549
REMARK  223  A    between atoms: _549  and  _550
REMARK  224  A    between atoms: _549  and  _552
REMARK  225  A    between atoms: _552  and  _553
REMARK  226  A    between atoms: _553  and  _554
REMARK  227  A    between atoms: _554  and  _555
REMARK  228  A    between atoms: _564  and  _566
REMARK  229  A    between atoms: _566  and  _567
REMARK  230  A    between atoms: _566  and  _569
REMARK  231  A    between atoms: _569  and  _570
REMARK                            x       y       z     vdW  Elec       q    Type
REMARK                         _______ _______ _______ _____ _____    ______ ____
ROOT
ATOM      1  O   HOH     1       9.222  -5.759   9.839  0.00  0.00    +0.000 OA
ENDROOT
TORSDOF 0
REMARK  Name = ../refined-set-2016/2fgu/2fgu_pocket.pdb
REMARK  231 active torsions:
REMARK  status: ('A' for Active; 'I' for Inactive)
REMARK    1  A    between atoms: _1  and  _3
REMARK    2  A    between atoms: _3  and  _4
REMARK    3  A    between atoms: _3  and  _6
REMARK    4  A    between atoms: _6  and  _7
REMARK    5  A    between atoms: _7  and  _8
REMARK    6  A    between atoms: _8  and  _9
REMARK    7  A    between atoms: _18  and  _20
REMARK    8  A    between atoms: _20  and  _21
REMARK    9  A    between atoms: _20  and  _23
REMARK   10  A    between atoms: _23  and  _24
REMARK   11  A    between atoms: _27  and  _29
REMARK   12  A    between atoms: _29  and  _30
REMARK   13  A    between atoms: _29  and  _32
REMARK   14  A    between atoms: _32  and  _33
REMARK   15  A    between atoms: _36  and  _38
REMARK   16  A    between atoms: _38  and  _39
REMARK   17  A    between atoms: _38  and  _41
REMARK   18  A    between atoms: _41  and  _42
REMARK   19  A    between atoms: _45  and  _47
REMARK   20  A    between atoms: _47  and  _48
REMARK   21  A    between atoms: _47  and  _50
REMARK   22  A    between atoms: _50  and  _51
REMARK   23  A    between atoms: _54  and  _56
REMARK   24  A    between atoms: _56  and  _57
REMARK   25  A    between atoms: _59  and  _61
REMARK   26  A    between atoms: _61  and  _62
REMARK   27  A    between atoms: _65  and  _67
REMARK   28  A    between atoms: _67  and  _68
REMARK   29  A    between atoms: _67  and  _70
REMARK   30  A    between atoms: _70  and  _71
REMARK   31  A    between atoms: _74  and  _76
REMARK   32  A    between atoms: _76  and  _77
REMARK   33  A    between atoms: _76  and  _79
REMARK   34  A    between atoms: _79  and  _80
REMARK   35  A    between atoms: _83  and  _85
REMARK   36  A    between atoms: _85  and  _86
REMARK   37  A    between atoms: _85  and  _88
REMARK   38  A    between atoms: _88  and  _89
REMARK   39  A    between atoms: _92  and  _94
REMARK   40  A    between atoms: _94  and  _95
REMARK   41  A    between atoms: _94  and  _97
REMARK   42  A    between atoms: _100  and  _102
REMARK   43  A    between atoms: _102  and  _103
REMARK   44  A    between atoms: _102  and  _105
REMARK   45  A    between atoms: _105  and  _106
REMARK   46  A    between atoms: _106  and  _107
REMARK   47  A    between atoms: _107  and  _108
REMARK   48  A    between atoms: _108  and  _109
REMARK   49  A    between atoms: _113  and  _115
REMARK   50  A    between atoms: _115  and  _116
REMARK   51  A    between atoms: _115  and  _118
REMARK   52  A    between atoms: _118  and  _119
REMARK   53  A    between atoms: _119  and  _120
REMARK   54  A    between atoms: _122  and  _124
REMARK   55  A    between atoms: _124  and  _125
REMARK   56  A    between atoms: _124  and  _127
REMARK   57  A    between atoms: _127  and  _128
REMARK   58  A    between atoms: _131  and  _133
REMARK   59  A    between atoms: _133  and  _134
REMARK   60  A    between atoms: _136  and  _138
REMARK   61  A    between atoms: _138  and  _139
REMARK   62  A    between atoms: _141  and  _143
REMARK   63  A    between atoms: _143  and  _144
REMARK   64  A    between atoms: _143  and  _146
REMARK   65  A    between atoms: _146  and  _147
REMARK   66  A    between atoms: _150  and  _152
REMARK   67  A    between atoms: _152  and  _153
REMARK   68  A    between atoms: _155  and  _157
REMARK   69  A    between atoms: _157  and  _158
REMARK   70  A    between atoms: _160  and  _162
REMARK   71  A    between atoms: _162  and  _163
REMARK   72  A    between atoms: _162  and  _165
REMARK   73  A    between atoms: _165  and  _166
REMARK   74  A    between atoms: _172  and  _174
REMARK   75  A    between atoms: _174  and  _175
REMARK   76  A    between atoms: _174  and  _177
REMARK   77  A    between atoms: _177  and  _178
REMARK   78  A    between atoms: _181  and  _183
REMARK   79  A    between atoms: _183  and  _184
REMARK   80  A    between atoms: _183  and  _186
REMARK   81  A    between atoms: _189  and  _191
REMARK   82  A    between atoms: _191  and  _192
REMARK   83  A    between atoms: _191  and  _194
REMARK   84  A    between atoms: _194  and  _195
REMARK   85  A    between atoms: _199  and  _200
REMARK   86  A    between atoms: _205  and  _207
REMARK   87  A    between atoms: _207  and  _208
REMARK   88  A    between atoms: _207  and  _210
REMARK   89  A    between atoms: _210  and  _211
REMARK   90  A    between atoms: _214  and  _215
REMARK   91  A    between atoms: _220  and  _222
REMARK   92  A    between atoms: _222  and  _223
REMARK   93  A    between atoms: _222  and  _225
REMARK   94  A    between atoms: _228  and  _230
REMARK   95  A    between atoms: _230  and  _231
REMARK   96  A    between atoms: _230  and  _233
REMARK   97  A    between atoms: _233  and  _234
REMARK   98  A    between atoms: _239  and  _241
REMARK   99  A    between atoms: _241  and  _242
REMARK  100  A    between atoms: _241  and  _244
REMARK  101  A    between atoms: _244  and  _245
REMARK  102  A    between atoms: _248  and  _250
REMARK  103  A    between atoms: _250  and  _251
REMARK  104  A    between atoms: _250  and  _253
REMARK  105  A    between atoms: _253  and  _254
REMARK  106  A    between atoms: _257  and  _259
REMARK  107  A    between atoms: _259  and  _260
REMARK  108  A    between atoms: _262  and  _264
REMARK  109  A    between atoms: _264  and  _265
REMARK  110  A    between atoms: _264  and  _267
REMARK  111  A    between atoms: _267  and  _268
REMARK  112  A    between atoms: _268  and  _269
REMARK  113  A    between atoms: _269  and  _270
REMARK  114  A    between atoms: _279  and  _281
REMARK  115  A    between atoms: _281  and  _282
REMARK  116  A    between atoms: _281  and  _284
REMARK  117  A    between atoms: _284  and  _285
REMARK  118  A    between atoms: _290  and  _292
REMARK  119  A    between atoms: _292  and  _293
REMARK  120  A    between atoms: _292  and  _295
REMARK  121  A    between atoms: _295  and  _296
REMARK  122  A    between atoms: _296  and  _297
REMARK  123  A    between atoms: _297  and  _298
REMARK  124  A    between atoms: _307  and  _309
REMARK  125  A    between atoms: _309  and  _310
REMARK  126  A    between atoms: _309  and  _312
REMARK  127  A    between atoms: _312  and  _313
REMARK  128  A    between atoms: _316  and  _318
REMARK  129  A    between atoms: _318  and  _319
REMARK  130  A    between atoms: _318  and  _321
REMARK  131  A    between atoms: _321  and  _322
REMARK  132  A    between atoms: _325  and  _327
REMARK  133  A    between atoms: _327  and  _328
REMARK  134  A    between atoms: _327  and  _330
REMARK  135  A    between atoms: _330  and  _331
REMARK  136  A    between atoms: _334  and  _336
REMARK  137  A    between atoms: _336  and  _337
REMARK  138  A    between atoms: _336  and  _339
REMARK  139  A    between atoms: _339  and  _340
REMARK  140  A    between atoms: _343  and  _345
REMARK  141  A    between atoms: _345  and  _346
REMARK  142  A    between atoms: _348  and  _350
REMARK  143  A    between atoms: _350  and  _351
REMARK  144  A    between atoms: _354  and  _356
REMARK  145  A    between atoms: _356  and  _357
REMARK  146  A    between atoms: _356  and  _359
REMARK  147  A    between atoms: _359  and  _360
REMARK  148  A    between atoms: _363  and  _365
REMARK  149  A    between atoms: _365  and  _366
REMARK  150  A    between atoms: _365  and  _368
REMARK  151  A    between atoms: _368  and  _369
REMARK  152  A    between atoms: _372  and  _374
REMARK  153  A    between atoms: _374  and  _375
REMARK  154  A    between atoms: _374  and  _377
REMARK  155  A    between atoms: _377  and  _378
REMARK  156  A    between atoms: _381  and  _383
REMARK  157  A    between atoms: _383  and  _384
REMARK  158  A    between atoms: _383  and  _386
REMARK  159  A    between atoms: _389  and  _391
REMARK  160  A    between atoms: _391  and  _392
REMARK  161  A    between atoms: _391  and  _394
REMARK  162  A    between atoms: _394  and  _395
REMARK  163  A    between atoms: _398  and  _400
REMARK  164  A    between atoms: _400  and  _401
REMARK  165  A    between atoms: _400  and  _403
REMARK  166  A    between atoms: _403  and  _404
REMARK  167  A    between atoms: _404  and  _405
REMARK  168  A    between atoms: _407  and  _409
REMARK  169  A    between atoms: _409  and  _410
REMARK  170  A    between atoms: _409  and  _412
REMARK  171  A    between atoms: _412  and  _413
REMARK  172  A    between atoms: _416  and  _418
REMARK  173  A    between atoms: _418  and  _419
REMARK  174  A    between atoms: _421  and  _423
REMARK  175  A    between atoms: _423  and  _424
REMARK  176  A    between atoms: _426  and  _428
REMARK  177  A    between atoms: _428  and  _429
REMARK  178  A    between atoms: _428  and  _431
REMARK  179  A    between atoms: _431  and  _432
REMARK  180  A    between atoms: _435  and  _437
REMARK  181  A    between atoms: _437  and  _438
REMARK  182  A    between atoms: _440  and  _442
REMARK  183  A    between atoms: _442  and  _443
REMARK  184  A    between atoms: _445  and  _447
REMARK  185  A    between atoms: _447  and  _448
REMARK  186  A    between atoms: _447  and  _450
REMARK  187  A    between atoms: _450  and  _451
REMARK  188  A    between atoms: _457  and  _459
REMARK  189  A    between atoms: _459  and  _460
REMARK  190  A    between atoms: _459  and  _462
REMARK  191  A    between atoms: _462  and  _463
REMARK  192  A    between atoms: _466  and  _468
REMARK  193  A    between atoms: _468  and  _469
REMARK  194  A    between atoms: _468  and  _471
REMARK  195  A    between atoms: _474  and  _476
REMARK  196  A    between atoms: _476  and  _477
REMARK  197  A    between atoms: _476  and  _479
REMARK  198  A    between atoms: _479  and  _480
REMARK  199  A    between atoms: _484  and  _485
REMARK  200  A    between atoms: _490  and  _492
REMARK  201  A    between atoms: _492  and  _493
REMARK  202  A    between atoms: _492  and  _495
REMARK  203  A    between atoms: _495  and  _496
REMARK  204  A    between atoms: _499  and  _500
REMARK  205  A    between atoms: _505  and  _507
REMARK  206  A    between atoms: _507  and  _508
REMARK  207  A    between atoms: _507  and  _510
REMARK  208  A    between atoms: _513  and  _515
REMARK  209  A    between atoms: _515  and  _516
REMARK  210  A    between atoms: _515  and  _518
REMARK  211  A    between atoms: _518  and  _519
REMARK  212  A    between atoms: _524  and  _526
REMARK  213  A    between atoms: _526  and  _527
REMARK  214  A    between atoms: _526  and  _529
REMARK  215  A    between atoms: _529  and  _530
REMARK  216  A    between atoms: _533  and  _535
REMARK  217  A    between atoms: _535  and  _536
REMARK  218  A    between atoms: _535  and  _538
REMARK  219  A    between atoms: _538  and  _539
REMARK  220  A    between atoms: _542  and  _544
REMARK  221  A    between atoms: _544  and  _545
REMARK  222  A    between atoms: _547  and  _549
REMARK  223  A    between atoms: _549  and  _550
REMARK  224  A    between atoms: _549  and  _552
REMARK  225  A    between atoms: _552  and  _553
REMARK  226  A    between atoms: _553  and  _554
REMARK  227  A    between atoms: _554  and  _555
REMARK  228  A    between atoms: _564  and  _566
REMARK  229  A    between atoms: _566  and  _567
REMARK  230  A    between atoms: _566  and  _569
REMARK  231  A    between atoms: _569  and  _570
REMARK                            x       y       z     vdW  Elec       q    Type
REMARK                         _______ _______ _______ _____ _____    ______ ____
ROOT
ATOM      1  O   HOH     1      21.639   4.242  18.947  0.00  0.00    +0.000 OA
ENDROOT
TORSDOF 0
REMARK  Name = ../refined-set-2016/2fgu/2fgu_pocket.pdb
REMARK  231 active torsions:
REMARK  status: ('A' for Active; 'I' for Inactive)
REMARK    1  A    between atoms: _1  and  _3
REMARK    2  A    between atoms: _3  and  _4
REMARK    3  A    between atoms: _3  and  _6
REMARK    4  A    between atoms: _6  and  _7
REMARK    5  A    between atoms: _7  and  _8
REMARK    6  A    between atoms: _8  and  _9
REMARK    7  A    between atoms: _18  and  _20
REMARK    8  A    between atoms: _20  and  _21
REMARK    9  A    between atoms: _20  and  _23
REMARK   10  A    between atoms: _23  and  _24
REMARK   11  A    between atoms: _27  and  _29
REMARK   12  A    between atoms: _29  and  _30
REMARK   13  A    between atoms: _29  and  _32
REMARK   14  A    between atoms: _32  and  _33
REMARK   15  A    between atoms: _36  and  _38
REMARK   16  A    between atoms: _38  and  _39
REMARK   17  A    between atoms: _38  and  _41
REMARK   18  A    between atoms: _41  and  _42
REMARK   19  A    between atoms: _45  and  _47
REMARK   20  A    between atoms: _47  and  _48
REMARK   21  A    between atoms: _47  and  _50
REMARK   22  A    between atoms: _50  and  _51
REMARK   23  A    between atoms: _54  and  _56
REMARK   24  A    between atoms: _56  and  _57
REMARK   25  A    between atoms: _59  and  _61
REMARK   26  A    between atoms: _61  and  _62
REMARK   27  A    between atoms: _65  and  _67
REMARK   28  A    between atoms: _67  and  _68
REMARK   29  A    between atoms: _67  and  _70
REMARK   30  A    between atoms: _70  and  _71
REMARK   31  A    between atoms: _74  and  _76
REMARK   32  A    between atoms: _76  and  _77
REMARK   33  A    between atoms: _76  and  _79
REMARK   34  A    between atoms: _79  and  _80
REMARK   35  A    between atoms: _83  and  _85
REMARK   36  A    between atoms: _85  and  _86
REMARK   37  A    between atoms: _85  and  _88
REMARK   38  A    between atoms: _88  and  _89
REMARK   39  A    between atoms: _92  and  _94
REMARK   40  A    between atoms: _94  and  _95
REMARK   41  A    between atoms: _94  and  _97
REMARK   42  A    between atoms: _100  and  _102
REMARK   43  A    between atoms: _102  and  _103
REMARK   44  A    between atoms: _102  and  _105
REMARK   45  A    between atoms: _105  and  _106
REMARK   46  A    between atoms: _106  and  _107
REMARK   47  A    between atoms: _107  and  _108
REMARK   48  A    between atoms: _108  and  _109
REMARK   49  A    between atoms: _113  and  _115
REMARK   50  A    between atoms: _115  and  _116
REMARK   51  A    between atoms: _115  and  _118
REMARK   52  A    between atoms: _118  and  _119
REMARK   53  A    between atoms: _119  and  _120
REMARK   54  A    between atoms: _122  and  _124
REMARK   55  A    between atoms: _124  and  _125
REMARK   56  A    between atoms: _124  and  _127
REMARK   57  A    between atoms: _127  and  _128
REMARK   58  A    between atoms: _131  and  _133
REMARK   59  A    between atoms: _133  and  _134
REMARK   60  A    between atoms: _136  and  _138
REMARK   61  A    between atoms: _138  and  _139
REMARK   62  A    between atoms: _141  and  _143
REMARK   63  A    between atoms: _143  and  _144
REMARK   64  A    between atoms: _143  and  _146
REMARK   65  A    between atoms: _146  and  _147
REMARK   66  A    between atoms: _150  and  _152
REMARK   67  A    between atoms: _152  and  _153
REMARK   68  A    between atoms: _155  and  _157
REMARK   69  A    between atoms: _157  and  _158
REMARK   70  A    between atoms: _160  and  _162
REMARK   71  A    between atoms: _162  and  _163
REMARK   72  A    between atoms: _162  and  _165
REMARK   73  A    between atoms: _165  and  _166
REMARK   74  A    between atoms: _172  and  _174
REMARK   75  A    between atoms: _174  and  _175
REMARK   76  A    between atoms: _174  and  _177
REMARK   77  A    between atoms: _177  and  _178
REMARK   78  A    between atoms: _181  and  _183
REMARK   79  A    between atoms: _183  and  _184
REMARK   80  A    between atoms: _183  and  _186
REMARK   81  A    between atoms: _189  and  _191
REMARK   82  A    between atoms: _191  and  _192
REMARK   83  A    between atoms: _191  and  _194
REMARK   84  A    between atoms: _194  and  _195
REMARK   85  A    between atoms: _199  and  _200
REMARK   86  A    between atoms: _205  and  _207
REMARK   87  A    between atoms: _207  and  _208
REMARK   88  A    between atoms: _207  and  _210
REMARK   89  A    between atoms: _210  and  _211
REMARK   90  A    between atoms: _214  and  _215
REMARK   91  A    between atoms: _220  and  _222
REMARK   92  A    between atoms: _222  and  _223
REMARK   93  A    between atoms: _222  and  _225
REMARK   94  A    between atoms: _228  and  _230
REMARK   95  A    between atoms: _230  and  _231
REMARK   96  A    between atoms: _230  and  _233
REMARK   97  A    between atoms: _233  and  _234
REMARK   98  A    between atoms: _239  and  _241
REMARK   99  A    between atoms: _241  and  _242
REMARK  100  A    between atoms: _241  and  _244
REMARK  101  A    between atoms: _244  and  _245
REMARK  102  A    between atoms: _248  and  _250
REMARK  103  A    between atoms: _250  and  _251
REMARK  104  A    between atoms: _250  and  _253
REMARK  105  A    between atoms: _253  and  _254
REMARK  106  A    between atoms: _257  and  _259
REMARK  107  A    between atoms: _259  and  _260
REMARK  108  A    between atoms: _262  and  _264
REMARK  109  A    between atoms: _264  and  _265
REMARK  110  A    between atoms: _264  and  _267
REMARK  111  A    between atoms: _267  and  _268
REMARK  112  A    between atoms: _268  and  _269
REMARK  113  A    between atoms: _269  and  _270
REMARK  114  A    between atoms: _279  and  _281
REMARK  115  A    between atoms: _281  and  _282
REMARK  116  A    between atoms: _281  and  _284
REMARK  117  A    between atoms: _284  and  _285
REMARK  118  A    between atoms: _290  and  _292
REMARK  119  A    between atoms: _292  and  _293
REMARK  120  A    between atoms: _292  and  _295
REMARK  121  A    between atoms: _295  and  _296
REMARK  122  A    between atoms: _296  and  _297
REMARK  123  A    between atoms: _297  and  _298
REMARK  124  A    between atoms: _307  and  _309
REMARK  125  A    between atoms: _309  and  _310
REMARK  126  A    between atoms: _309  and  _312
REMARK  127  A    between atoms: _312  and  _313
REMARK  128  A    between atoms: _316  and  _318
REMARK  129  A    between atoms: _318  and  _319
REMARK  130  A    between atoms: _318  and  _321
REMARK  131  A    between atoms: _321  and  _322
REMARK  132  A    between atoms: _325  and  _327
REMARK  133  A    between atoms: _327  and  _328
REMARK  134  A    between atoms: _327  and  _330
REMARK  135  A    between atoms: _330  and  _331
REMARK  136  A    between atoms: _334  and  _336
REMARK  137  A    between atoms: _336  and  _337
REMARK  138  A    between atoms: _336  and  _339
REMARK  139  A    between atoms: _339  and  _340
REMARK  140  A    between atoms: _343  and  _345
REMARK  141  A    between atoms: _345  and  _346
REMARK  142  A    between atoms: _348  and  _350
REMARK  143  A    between atoms: _350  and  _351
REMARK  144  A    between atoms: _354  and  _356
REMARK  145  A    between atoms: _356  and  _357
REMARK  146  A    between atoms: _356  and  _359
REMARK  147  A    between atoms: _359  and  _360
REMARK  148  A    between atoms: _363  and  _365
REMARK  149  A    between atoms: _365  and  _366
REMARK  150  A    between atoms: _365  and  _368
REMARK  151  A    between atoms: _368  and  _369
REMARK  152  A    between atoms: _372  and  _374
REMARK  153  A    between atoms: _374  and  _375
REMARK  154  A    between atoms: _374  and  _377
REMARK  155  A    between atoms: _377  and  _378
REMARK  156  A    between atoms: _381  and  _383
REMARK  157  A    between atoms: _383  and  _384
REMARK  158  A    between atoms: _383  and  _386
REMARK  159  A    between atoms: _389  and  _391
REMARK  160  A    between atoms: _391  and  _392
REMARK  161  A    between atoms: _391  and  _394
REMARK  162  A    between atoms: _394  and  _395
REMARK  163  A    between atoms: _398  and  _400
REMARK  164  A    between atoms: _400  and  _401
REMARK  165  A    between atoms: _400  and  _403
REMARK  166  A    between atoms: _403  and  _404
REMARK  167  A    between atoms: _404  and  _405
REMARK  168  A    between atoms: _407  and  _409
REMARK  169  A    between atoms: _409  and  _410
REMARK  170  A    between atoms: _409  and  _412
REMARK  171  A    between atoms: _412  and  _413
REMARK  172  A    between atoms: _416  and  _418
REMARK  173  A    between atoms: _418  and  _419
REMARK  174  A    between atoms: _421  and  _423
REMARK  175  A    between atoms: _423  and  _424
REMARK  176  A    between atoms: _426  and  _428
REMARK  177  A    between atoms: _428  and  _429
REMARK  178  A    between atoms: _428  and  _431
REMARK  179  A    between atoms: _431  and  _432
REMARK  180  A    between atoms: _435  and  _437
REMARK  181  A    between atoms: _437  and  _438
REMARK  182  A    between atoms: _440  and  _442
REMARK  183  A    between atoms: _442  and  _443
REMARK  184  A    between atoms: _445  and  _447
REMARK  185  A    between atoms: _447  and  _448
REMARK  186  A    between atoms: _447  and  _450
REMARK  187  A    between atoms: _450  and  _451
REMARK  188  A    between atoms: _457  and  _459
REMARK  189  A    between atoms: _459  and  _460
REMARK  190  A    between atoms: _459  and  _462
REMARK  191  A    between atoms: _462  and  _463
REMARK  192  A    between atoms: _466  and  _468
REMARK  193  A    between atoms: _468  and  _469
REMARK  194  A    between atoms: _468  and  _471
REMARK  195  A    between atoms: _474  and  _476
REMARK  196  A    between atoms: _476  and  _477
REMARK  197  A    between atoms: _476  and  _479
REMARK  198  A    between atoms: _479  and  _480
REMARK  199  A    between atoms: _484  and  _485
REMARK  200  A    between atoms: _490  and  _492
REMARK  201  A    between atoms: _492  and  _493
REMARK  202  A    between atoms: _492  and  _495
REMARK  203  A    between atoms: _495  and  _496
REMARK  204  A    between atoms: _499  and  _500
REMARK  205  A    between atoms: _505  and  _507
REMARK  206  A    between atoms: _507  and  _508
REMARK  207  A    between atoms: _507  and  _510
REMARK  208  A    between atoms: _513  and  _515
REMARK  209  A    between atoms: _515  and  _516
REMARK  210  A    between atoms: _515  and  _518
REMARK  211  A    between atoms: _518  and  _519
REMARK  212  A    between atoms: _524  and  _526
REMARK  213  A    between atoms: _526  and  _527
REMARK  214  A    between atoms: _526  and  _529
REMARK  215  A    between atoms: _529  and  _530
REMARK  216  A    between atoms: _533  and  _535
REMARK  217  A    between atoms: _535  and  _536
REMARK  218  A    between atoms: _535  and  _538
REMARK  219  A    between atoms: _538  and  _539
REMARK  220  A    between atoms: _542  and  _544
REMARK  221  A    between atoms: _544  and  _545
REMARK  222  A    between atoms: _547  and  _549
REMARK  223  A    between atoms: _549  and  _550
REMARK  224  A    between atoms: _549  and  _552
REMARK  225  A    between atoms: _552  and  _553
REMARK  226  A    between atoms: _553  and  _554
REMARK  227  A    between atoms: _554  and  _555
REMARK  228  A    between atoms: _564  and  _566
REMARK  229  A    between atoms: _566  and  _567
REMARK  230  A    between atoms: _566  and  _569
REMARK  231  A    between atoms: _569  and  _570
REMARK                            x       y       z     vdW  Elec       q    Type
REMARK                         _______ _______ _______ _____ _____    ______ ____
ROOT
ATOM      1  O   HOH     1      20.794  -5.250   9.438  0.00  0.00    +0.000 OA
ENDROOT
TORSDOF 0
REMARK  Name = ../refined-set-2016/2fgu/2fgu_pocket.pdb
REMARK  231 active torsions:
REMARK  status: ('A' for Active; 'I' for Inactive)
REMARK    1  A    between atoms: _1  and  _3
REMARK    2  A    between atoms: _3  and  _4
REMARK    3  A    between atoms: _3  and  _6
REMARK    4  A    between atoms: _6  and  _7
REMARK    5  A    between atoms: _7  and  _8
REMARK    6  A    between atoms: _8  and  _9
REMARK    7  A    between atoms: _18  and  _20
REMARK    8  A    between atoms: _20  and  _21
REMARK    9  A    between atoms: _20  and  _23
REMARK   10  A    between atoms: _23  and  _24
REMARK   11  A    between atoms: _27  and  _29
REMARK   12  A    between atoms: _29  and  _30
REMARK   13  A    between atoms: _29  and  _32
REMARK   14  A    between atoms: _32  and  _33
REMARK   15  A    between atoms: _36  and  _38
REMARK   16  A    between atoms: _38  and  _39
REMARK   17  A    between atoms: _38  and  _41
REMARK   18  A    between atoms: _41  and  _42
REMARK   19  A    between atoms: _45  and  _47
REMARK   20  A    between atoms: _47  and  _48
REMARK   21  A    between atoms: _47  and  _50
REMARK   22  A    between atoms: _50  and  _51
REMARK   23  A    between atoms: _54  and  _56
REMARK   24  A    between atoms: _56  and  _57
REMARK   25  A    between atoms: _59  and  _61
REMARK   26  A    between atoms: _61  and  _62
REMARK   27  A    between atoms: _65  and  _67
REMARK   28  A    between atoms: _67  and  _68
REMARK   29  A    between atoms: _67  and  _70
REMARK   30  A    between atoms: _70  and  _71
REMARK   31  A    between atoms: _74  and  _76
REMARK   32  A    between atoms: _76  and  _77
REMARK   33  A    between atoms: _76  and  _79
REMARK   34  A    between atoms: _79  and  _80
REMARK   35  A    between atoms: _83  and  _85
REMARK   36  A    between atoms: _85  and  _86
REMARK   37  A    between atoms: _85  and  _88
REMARK   38  A    between atoms: _88  and  _89
REMARK   39  A    between atoms: _92  and  _94
REMARK   40  A    between atoms: _94  and  _95
REMARK   41  A    between atoms: _94  and  _97
REMARK   42  A    between atoms: _100  and  _102
REMARK   43  A    between atoms: _102  and  _103
REMARK   44  A    between atoms: _102  and  _105
REMARK   45  A    between atoms: _105  and  _106
REMARK   46  A    between atoms: _106  and  _107
REMARK   47  A    between atoms: _107  and  _108
REMARK   48  A    between atoms: _108  and  _109
REMARK   49  A    between atoms: _113  and  _115
REMARK   50  A    between atoms: _115  and  _116
REMARK   51  A    between atoms: _115  and  _118
REMARK   52  A    between atoms: _118  and  _119
REMARK   53  A    between atoms: _119  and  _120
REMARK   54  A    between atoms: _122  and  _124
REMARK   55  A    between atoms: _124  and  _125
REMARK   56  A    between atoms: _124  and  _127
REMARK   57  A    between atoms: _127  and  _128
REMARK   58  A    between atoms: _131  and  _133
REMARK   59  A    between atoms: _133  and  _134
REMARK   60  A    between atoms: _136  and  _138
REMARK   61  A    between atoms: _138  and  _139
REMARK   62  A    between atoms: _141  and  _143
REMARK   63  A    between atoms: _143  and  _144
REMARK   64  A    between atoms: _143  and  _146
REMARK   65  A    between atoms: _146  and  _147
REMARK   66  A    between atoms: _150  and  _152
REMARK   67  A    between atoms: _152  and  _153
REMARK   68  A    between atoms: _155  and  _157
REMARK   69  A    between atoms: _157  and  _158
REMARK   70  A    between atoms: _160  and  _162
REMARK   71  A    between atoms: _162  and  _163
REMARK   72  A    between atoms: _162  and  _165
REMARK   73  A    between atoms: _165  and  _166
REMARK   74  A    between atoms: _172  and  _174
REMARK   75  A    between atoms: _174  and  _175
REMARK   76  A    between atoms: _174  and  _177
REMARK   77  A    between atoms: _177  and  _178
REMARK   78  A    between atoms: _181  and  _183
REMARK   79  A    between atoms: _183  and  _184
REMARK   80  A    between atoms: _183  and  _186
REMARK   81  A    between atoms: _189  and  _191
REMARK   82  A    between atoms: _191  and  _192
REMARK   83  A    between atoms: _191  and  _194
REMARK   84  A    between atoms: _194  and  _195
REMARK   85  A    between atoms: _199  and  _200
REMARK   86  A    between atoms: _205  and  _207
REMARK   87  A    between atoms: _207  and  _208
REMARK   88  A    between atoms: _207  and  _210
REMARK   89  A    between atoms: _210  and  _211
REMARK   90  A    between atoms: _214  and  _215
REMARK   91  A    between atoms: _220  and  _222
REMARK   92  A    between atoms: _222  and  _223
REMARK   93  A    between atoms: _222  and  _225
REMARK   94  A    between atoms: _228  and  _230
REMARK   95  A    between atoms: _230  and  _231
REMARK   96  A    between atoms: _230  and  _233
REMARK   97  A    between atoms: _233  and  _234
REMARK   98  A    between atoms: _239  and  _241
REMARK   99  A    between atoms: _241  and  _242
REMARK  100  A    between atoms: _241  and  _244
REMARK  101  A    between atoms: _244  and  _245
REMARK  102  A    between atoms: _248  and  _250
REMARK  103  A    between atoms: _250  and  _251
REMARK  104  A    between atoms: _250  and  _253
REMARK  105  A    between atoms: _253  and  _254
REMARK  106  A    between atoms: _257  and  _259
REMARK  107  A    between atoms: _259  and  _260
REMARK  108  A    between atoms: _262  and  _264
REMARK  109  A    between atoms: _264  and  _265
REMARK  110  A    between atoms: _264  and  _267
REMARK  111  A    between atoms: _267  and  _268
REMARK  112  A    between atoms: _268  and  _269
REMARK  113  A    between atoms: _269  and  _270
REMARK  114  A    between atoms: _279  and  _281
REMARK  115  A    between atoms: _281  and  _282
REMARK  116  A    between atoms: _281  and  _284
REMARK  117  A    between atoms: _284  and  _285
REMARK  118  A    between atoms: _290  and  _292
REMARK  119  A    between atoms: _292  and  _293
REMARK  120  A    between atoms: _292  and  _295
REMARK  121  A    between atoms: _295  and  _296
REMARK  122  A    between atoms: _296  and  _297
REMARK  123  A    between atoms: _297  and  _298
REMARK  124  A    between atoms: _307  and  _309
REMARK  125  A    between atoms: _309  and  _310
REMARK  126  A    between atoms: _309  and  _312
REMARK  127  A    between atoms: _312  and  _313
REMARK  128  A    between atoms: _316  and  _318
REMARK  129  A    between atoms: _318  and  _319
REMARK  130  A    between atoms: _318  and  _321
REMARK  131  A    between atoms: _321  and  _322
REMARK  132  A    between atoms: _325  and  _327
REMARK  133  A    between atoms: _327  and  _328
REMARK  134  A    between atoms: _327  and  _330
REMARK  135  A    between atoms: _330  and  _331
REMARK  136  A    between atoms: _334  and  _336
REMARK  137  A    between atoms: _336  and  _337
REMARK  138  A    between atoms: _336  and  _339
REMARK  139  A    between atoms: _339  and  _340
REMARK  140  A    between atoms: _343  and  _345
REMARK  141  A    between atoms: _345  and  _346
REMARK  142  A    between atoms: _348  and  _350
REMARK  143  A    between atoms: _350  and  _351
REMARK  144  A    between atoms: _354  and  _356
REMARK  145  A    between atoms: _356  and  _357
REMARK  146  A    between atoms: _356  and  _359
REMARK  147  A    between atoms: _359  and  _360
REMARK  148  A    between atoms: _363  and  _365
REMARK  149  A    between atoms: _365  and  _366
REMARK  150  A    between atoms: _365  and  _368
REMARK  151  A    between atoms: _368  and  _369
REMARK  152  A    between atoms: _372  and  _374
REMARK  153  A    between atoms: _374  and  _375
REMARK  154  A    between atoms: _374  and  _377
REMARK  155  A    between atoms: _377  and  _378
REMARK  156  A    between atoms: _381  and  _383
REMARK  157  A    between atoms: _383  and  _384
REMARK  158  A    between atoms: _383  and  _386
REMARK  159  A    between atoms: _389  and  _391
REMARK  160  A    between atoms: _391  and  _392
REMARK  161  A    between atoms: _391  and  _394
REMARK  162  A    between atoms: _394  and  _395
REMARK  163  A    between atoms: _398  and  _400
REMARK  164  A    between atoms: _400  and  _401
REMARK  165  A    between atoms: _400  and  _403
REMARK  166  A    between atoms: _403  and  _404
REMARK  167  A    between atoms: _404  and  _405
REMARK  168  A    between atoms: _407  and  _409
REMARK  169  A    between atoms: _409  and  _410
REMARK  170  A    between atoms: _409  and  _412
REMARK  171  A    between atoms: _412  and  _413
REMARK  172  A    between atoms: _416  and  _418
REMARK  173  A    between atoms: _418  and  _419
REMARK  174  A    between atoms: _421  and  _423
REMARK  175  A    between atoms: _423  and  _424
REMARK  176  A    between atoms: _426  and  _428
REMARK  177  A    between atoms: _428  and  _429
REMARK  178  A    between atoms: _428  and  _431
REMARK  179  A    between atoms: _431  and  _432
REMARK  180  A    between atoms: _435  and  _437
REMARK  181  A    between atoms: _437  and  _438
REMARK  182  A    between atoms: _440  and  _442
REMARK  183  A    between atoms: _442  and  _443
REMARK  184  A    between atoms: _445  and  _447
REMARK  185  A    between atoms: _447  and  _448
REMARK  186  A    between atoms: _447  and  _450
REMARK  187  A    between atoms: _450  and  _451
REMARK  188  A    between atoms: _457  and  _459
REMARK  189  A    between atoms: _459  and  _460
REMARK  190  A    between atoms: _459  and  _462
REMARK  191  A    between atoms: _462  and  _463
REMARK  192  A    between atoms: _466  and  _468
REMARK  193  A    between atoms: _468  and  _469
REMARK  194  A    between atoms: _468  and  _471
REMARK  195  A    between atoms: _474  and  _476
REMARK  196  A    between atoms: _476  and  _477
REMARK  197  A    between atoms: _476  and  _479
REMARK  198  A    between atoms: _479  and  _480
REMARK  199  A    between atoms: _484  and  _485
REMARK  200  A    between atoms: _490  and  _492
REMARK  201  A    between atoms: _492  and  _493
REMARK  202  A    between atoms: _492  and  _495
REMARK  203  A    between atoms: _495  and  _496
REMARK  204  A    between atoms: _499  and  _500
REMARK  205  A    between atoms: _505  and  _507
REMARK  206  A    between atoms: _507  and  _508
REMARK  207  A    between atoms: _507  and  _510
REMARK  208  A    between atoms: _513  and  _515
REMARK  209  A    between atoms: _515  and  _516
REMARK  210  A    between atoms: _515  and  _518
REMARK  211  A    between atoms: _518  and  _519
REMARK  212  A    between atoms: _524  and  _526
REMARK  213  A    between atoms: _526  and  _527
REMARK  214  A    between atoms: _526  and  _529
REMARK  215  A    between atoms: _529  and  _530
REMARK  216  A    between atoms: _533  and  _535
REMARK  217  A    between atoms: _535  and  _536
REMARK  218  A    between atoms: _535  and  _538
REMARK  219  A    between atoms: _538  and  _539
REMARK  220  A    between atoms: _542  and  _544
REMARK  221  A    between atoms: _544  and  _545
REMARK  222  A    between atoms: _547  and  _549
REMARK  223  A    between atoms: _549  and  _550
REMARK  224  A    between atoms: _549  and  _552
REMARK  225  A    between atoms: _552  and  _553
REMARK  226  A    between atoms: _553  and  _554
REMARK  227  A    between atoms: _554  and  _555
REMARK  228  A    between atoms: _564  and  _566
REMARK  229  A    between atoms: _566  and  _567
REMARK  230  A    between atoms: _566  and  _569
REMARK  231  A    between atoms: _569  and  _570
REMARK                            x       y       z     vdW  Elec       q    Type
REMARK                         _______ _______ _______ _____ _____    ______ ____
ROOT
ATOM      1  O   HOH     1      16.875 -10.013  14.197  0.00  0.00    +0.000 OA
ENDROOT
TORSDOF 0
REMARK  Name = ../refined-set-2016/2fgu/2fgu_pocket.pdb
REMARK  231 active torsions:
REMARK  status: ('A' for Active; 'I' for Inactive)
REMARK    1  A    between atoms: _1  and  _3
REMARK    2  A    between atoms: _3  and  _4
REMARK    3  A    between atoms: _3  and  _6
REMARK    4  A    between atoms: _6  and  _7
REMARK    5  A    between atoms: _7  and  _8
REMARK    6  A    between atoms: _8  and  _9
REMARK    7  A    between atoms: _18  and  _20
REMARK    8  A    between atoms: _20  and  _21
REMARK    9  A    between atoms: _20  and  _23
REMARK   10  A    between atoms: _23  and  _24
REMARK   11  A    between atoms: _27  and  _29
REMARK   12  A    between atoms: _29  and  _30
REMARK   13  A    between atoms: _29  and  _32
REMARK   14  A    between atoms: _32  and  _33
REMARK   15  A    between atoms: _36  and  _38
REMARK   16  A    between atoms: _38  and  _39
REMARK   17  A    between atoms: _38  and  _41
REMARK   18  A    between atoms: _41  and  _42
REMARK   19  A    between atoms: _45  and  _47
REMARK   20  A    between atoms: _47  and  _48
REMARK   21  A    between atoms: _47  and  _50
REMARK   22  A    between atoms: _50  and  _51
REMARK   23  A    between atoms: _54  and  _56
REMARK   24  A    between atoms: _56  and  _57
REMARK   25  A    between atoms: _59  and  _61
REMARK   26  A    between atoms: _61  and  _62
REMARK   27  A    between atoms: _65  and  _67
REMARK   28  A    between atoms: _67  and  _68
REMARK   29  A    between atoms: _67  and  _70
REMARK   30  A    between atoms: _70  and  _71
REMARK   31  A    between atoms: _74  and  _76
REMARK   32  A    between atoms: _76  and  _77
REMARK   33  A    between atoms: _76  and  _79
REMARK   34  A    between atoms: _79  and  _80
REMARK   35  A    between atoms: _83  and  _85
REMARK   36  A    between atoms: _85  and  _86
REMARK   37  A    between atoms: _85  and  _88
REMARK   38  A    between atoms: _88  and  _89
REMARK   39  A    between atoms: _92  and  _94
REMARK   40  A    between atoms: _94  and  _95
REMARK   41  A    between atoms: _94  and  _97
REMARK   42  A    between atoms: _100  and  _102
REMARK   43  A    between atoms: _102  and  _103
REMARK   44  A    between atoms: _102  and  _105
REMARK   45  A    between atoms: _105  and  _106
REMARK   46  A    between atoms: _106  and  _107
REMARK   47  A    between atoms: _107  and  _108
REMARK   48  A    between atoms: _108  and  _109
REMARK   49  A    between atoms: _113  and  _115
REMARK   50  A    between atoms: _115  and  _116
REMARK   51  A    between atoms: _115  and  _118
REMARK   52  A    between atoms: _118  and  _119
REMARK   53  A    between atoms: _119  and  _120
REMARK   54  A    between atoms: _122  and  _124
REMARK   55  A    between atoms: _124  and  _125
REMARK   56  A    between atoms: _124  and  _127
REMARK   57  A    between atoms: _127  and  _128
REMARK   58  A    between atoms: _131  and  _133
REMARK   59  A    between atoms: _133  and  _134
REMARK   60  A    between atoms: _136  and  _138
REMARK   61  A    between atoms: _138  and  _139
REMARK   62  A    between atoms: _141  and  _143
REMARK   63  A    between atoms: _143  and  _144
REMARK   64  A    between atoms: _143  and  _146
REMARK   65  A    between atoms: _146  and  _147
REMARK   66  A    between atoms: _150  and  _152
REMARK   67  A    between atoms: _152  and  _153
REMARK   68  A    between atoms: _155  and  _157
REMARK   69  A    between atoms: _157  and  _158
REMARK   70  A    between atoms: _160  and  _162
REMARK   71  A    between atoms: _162  and  _163
REMARK   72  A    between atoms: _162  and  _165
REMARK   73  A    between atoms: _165  and  _166
REMARK   74  A    between atoms: _172  and  _174
REMARK   75  A    between atoms: _174  and  _175
REMARK   76  A    between atoms: _174  and  _177
REMARK   77  A    between atoms: _177  and  _178
REMARK   78  A    between atoms: _181  and  _183
REMARK   79  A    between atoms: _183  and  _184
REMARK   80  A    between atoms: _183  and  _186
REMARK   81  A    between atoms: _189  and  _191
REMARK   82  A    between atoms: _191  and  _192
REMARK   83  A    between atoms: _191  and  _194
REMARK   84  A    between atoms: _194  and  _195
REMARK   85  A    between atoms: _199  and  _200
REMARK   86  A    between atoms: _205  and  _207
REMARK   87  A    between atoms: _207  and  _208
REMARK   88  A    between atoms: _207  and  _210
REMARK   89  A    between atoms: _210  and  _211
REMARK   90  A    between atoms: _214  and  _215
REMARK   91  A    between atoms: _220  and  _222
REMARK   92  A    between atoms: _222  and  _223
REMARK   93  A    between atoms: _222  and  _225
REMARK   94  A    between atoms: _228  and  _230
REMARK   95  A    between atoms: _230  and  _231
REMARK   96  A    between atoms: _230  and  _233
REMARK   97  A    between atoms: _233  and  _234
REMARK   98  A    between atoms: _239  and  _241
REMARK   99  A    between atoms: _241  and  _242
REMARK  100  A    between atoms: _241  and  _244
REMARK  101  A    between atoms: _244  and  _245
REMARK  102  A    between atoms: _248  and  _250
REMARK  103  A    between atoms: _250  and  _251
REMARK  104  A    between atoms: _250  and  _253
REMARK  105  A    between atoms: _253  and  _254
REMARK  106  A    between atoms: _257  and  _259
REMARK  107  A    between atoms: _259  and  _260
REMARK  108  A    between atoms: _262  and  _264
REMARK  109  A    between atoms: _264  and  _265
REMARK  110  A    between atoms: _264  and  _267
REMARK  111  A    between atoms: _267  and  _268
REMARK  112  A    between atoms: _268  and  _269
REMARK  113  A    between atoms: _269  and  _270
REMARK  114  A    between atoms: _279  and  _281
REMARK  115  A    between atoms: _281  and  _282
REMARK  116  A    between atoms: _281  and  _284
REMARK  117  A    between atoms: _284  and  _285
REMARK  118  A    between atoms: _290  and  _292
REMARK  119  A    between atoms: _292  and  _293
REMARK  120  A    between atoms: _292  and  _295
REMARK  121  A    between atoms: _295  and  _296
REMARK  122  A    between atoms: _296  and  _297
REMARK  123  A    between atoms: _297  and  _298
REMARK  124  A    between atoms: _307  and  _309
REMARK  125  A    between atoms: _309  and  _310
REMARK  126  A    between atoms: _309  and  _312
REMARK  127  A    between atoms: _312  and  _313
REMARK  128  A    between atoms: _316  and  _318
REMARK  129  A    between atoms: _318  and  _319
REMARK  130  A    between atoms: _318  and  _321
REMARK  131  A    between atoms: _321  and  _322
REMARK  132  A    between atoms: _325  and  _327
REMARK  133  A    between atoms: _327  and  _328
REMARK  134  A    between atoms: _327  and  _330
REMARK  135  A    between atoms: _330  and  _331
REMARK  136  A    between atoms: _334  and  _336
REMARK  137  A    between atoms: _336  and  _337
REMARK  138  A    between atoms: _336  and  _339
REMARK  139  A    between atoms: _339  and  _340
REMARK  140  A    between atoms: _343  and  _345
REMARK  141  A    between atoms: _345  and  _346
REMARK  142  A    between atoms: _348  and  _350
REMARK  143  A    between atoms: _350  and  _351
REMARK  144  A    between atoms: _354  and  _356
REMARK  145  A    between atoms: _356  and  _357
REMARK  146  A    between atoms: _356  and  _359
REMARK  147  A    between atoms: _359  and  _360
REMARK  148  A    between atoms: _363  and  _365
REMARK  149  A    between atoms: _365  and  _366
REMARK  150  A    between atoms: _365  and  _368
REMARK  151  A    between atoms: _368  and  _369
REMARK  152  A    between atoms: _372  and  _374
REMARK  153  A    between atoms: _374  and  _375
REMARK  154  A    between atoms: _374  and  _377
REMARK  155  A    between atoms: _377  and  _378
REMARK  156  A    between atoms: _381  and  _383
REMARK  157  A    between atoms: _383  and  _384
REMARK  158  A    between atoms: _383  and  _386
REMARK  159  A    between atoms: _389  and  _391
REMARK  160  A    between atoms: _391  and  _392
REMARK  161  A    between atoms: _391  and  _394
REMARK  162  A    between atoms: _394  and  _395
REMARK  163  A    between atoms: _398  and  _400
REMARK  164  A    between atoms: _400  and  _401
REMARK  165  A    between atoms: _400  and  _403
REMARK  166  A    between atoms: _403  and  _404
REMARK  167  A    between atoms: _404  and  _405
REMARK  168  A    between atoms: _407  and  _409
REMARK  169  A    between atoms: _409  and  _410
REMARK  170  A    between atoms: _409  and  _412
REMARK  171  A    between atoms: _412  and  _413
REMARK  172  A    between atoms: _416  and  _418
REMARK  173  A    between atoms: _418  and  _419
REMARK  174  A    between atoms: _421  and  _423
REMARK  175  A    between atoms: _423  and  _424
REMARK  176  A    between atoms: _426  and  _428
REMARK  177  A    between atoms: _428  and  _429
REMARK  178  A    between atoms: _428  and  _431
REMARK  179  A    between atoms: _431  and  _432
REMARK  180  A    between atoms: _435  and  _437
REMARK  181  A    between atoms: _437  and  _438
REMARK  182  A    between atoms: _440  and  _442
REMARK  183  A    between atoms: _442  and  _443
REMARK  184  A    between atoms: _445  and  _447
REMARK  185  A    between atoms: _447  and  _448
REMARK  186  A    between atoms: _447  and  _450
REMARK  187  A    between atoms: _450  and  _451
REMARK  188  A    between atoms: _457  and  _459
REMARK  189  A    between atoms: _459  and  _460
REMARK  190  A    between atoms: _459  and  _462
REMARK  191  A    between atoms: _462  and  _463
REMARK  192  A    between atoms: _466  and  _468
REMARK  193  A    between atoms: _468  and  _469
REMARK  194  A    between atoms: _468  and  _471
REMARK  195  A    between atoms: _474  and  _476
REMARK  196  A    between atoms: _476  and  _477
REMARK  197  A    between atoms: _476  and  _479
REMARK  198  A    between atoms: _479  and  _480
REMARK  199  A    between atoms: _484  and  _485
REMARK  200  A    between atoms: _490  and  _492
REMARK  201  A    between atoms: _492  and  _493
REMARK  202  A    between atoms: _492  and  _495
REMARK  203  A    between atoms: _495  and  _496
REMARK  204  A    between atoms: _499  and  _500
REMARK  205  A    between atoms: _505  and  _507
REMARK  206  A    between atoms: _507  and  _508
REMARK  207  A    between atoms: _507  and  _510
REMARK  208  A    between atoms: _513  and  _515
REMARK  209  A    between atoms: _515  and  _516
REMARK  210  A    between atoms: _515  and  _518
REMARK  211  A    between atoms: _518  and  _519
REMARK  212  A    between atoms: _524  and  _526
REMARK  213  A    between atoms: _526  and  _527
REMARK  214  A    between atoms: _526  and  _529
REMARK  215  A    between atoms: _529  and  _530
REMARK  216  A    between atoms: _533  and  _535
REMARK  217  A    between atoms: _535  and  _536
REMARK  218  A    between atoms: _535  and  _538
REMARK  219  A    between atoms: _538  and  _539
REMARK  220  A    between atoms: _542  and  _544
REMARK  221  A    between atoms: _544  and  _545
REMARK  222  A    between atoms: _547  and  _549
REMARK  223  A    between atoms: _549  and  _550
REMARK  224  A    between atoms: _549  and  _552
REMARK  225  A    between atoms: _552  and  _553
REMARK  226  A    between atoms: _553  and  _554
REMARK  227  A    between atoms: _554  and  _555
REMARK  228  A    between atoms: _564  and  _566
REMARK  229  A    between atoms: _566  and  _567
REMARK  230  A    between atoms: _566  and  _569
REMARK  231  A    between atoms: _569  and  _570
REMARK                            x       y       z     vdW  Elec       q    Type
REMARK                         _______ _______ _______ _____ _____    ______ ____
ROOT
ATOM      1  O   HOH     1      20.355 -14.848  14.839  0.00  0.00    +0.000 OA
ENDROOT
TORSDOF 0
REMARK  Name = ../refined-set-2016/2fgu/2fgu_pocket.pdb
REMARK  231 active torsions:
REMARK  status: ('A' for Active; 'I' for Inactive)
REMARK    1  A    between atoms: _1  and  _3
REMARK    2  A    between atoms: _3  and  _4
REMARK    3  A    between atoms: _3  and  _6
REMARK    4  A    between atoms: _6  and  _7
REMARK    5  A    between atoms: _7  and  _8
REMARK    6  A    between atoms: _8  and  _9
REMARK    7  A    between atoms: _18  and  _20
REMARK    8  A    between atoms: _20  and  _21
REMARK    9  A    between atoms: _20  and  _23
REMARK   10  A    between atoms: _23  and  _24
REMARK   11  A    between atoms: _27  and  _29
REMARK   12  A    between atoms: _29  and  _30
REMARK   13  A    between atoms: _29  and  _32
REMARK   14  A    between atoms: _32  and  _33
REMARK   15  A    between atoms: _36  and  _38
REMARK   16  A    between atoms: _38  and  _39
REMARK   17  A    between atoms: _38  and  _41
REMARK   18  A    between atoms: _41  and  _42
REMARK   19  A    between atoms: _45  and  _47
REMARK   20  A    between atoms: _47  and  _48
REMARK   21  A    between atoms: _47  and  _50
REMARK   22  A    between atoms: _50  and  _51
REMARK   23  A    between atoms: _54  and  _56
REMARK   24  A    between atoms: _56  and  _57
REMARK   25  A    between atoms: _59  and  _61
REMARK   26  A    between atoms: _61  and  _62
REMARK   27  A    between atoms: _65  and  _67
REMARK   28  A    between atoms: _67  and  _68
REMARK   29  A    between atoms: _67  and  _70
REMARK   30  A    between atoms: _70  and  _71
REMARK   31  A    between atoms: _74  and  _76
REMARK   32  A    between atoms: _76  and  _77
REMARK   33  A    between atoms: _76  and  _79
REMARK   34  A    between atoms: _79  and  _80
REMARK   35  A    between atoms: _83  and  _85
REMARK   36  A    between atoms: _85  and  _86
REMARK   37  A    between atoms: _85  and  _88
REMARK   38  A    between atoms: _88  and  _89
REMARK   39  A    between atoms: _92  and  _94
REMARK   40  A    between atoms: _94  and  _95
REMARK   41  A    between atoms: _94  and  _97
REMARK   42  A    between atoms: _100  and  _102
REMARK   43  A    between atoms: _102  and  _103
REMARK   44  A    between atoms: _102  and  _105
REMARK   45  A    between atoms: _105  and  _106
REMARK   46  A    between atoms: _106  and  _107
REMARK   47  A    between atoms: _107  and  _108
REMARK   48  A    between atoms: _108  and  _109
REMARK   49  A    between atoms: _113  and  _115
REMARK   50  A    between atoms: _115  and  _116
REMARK   51  A    between atoms: _115  and  _118
REMARK   52  A    between atoms: _118  and  _119
REMARK   53  A    between atoms: _119  and  _120
REMARK   54  A    between atoms: _122  and  _124
REMARK   55  A    between atoms: _124  and  _125
REMARK   56  A    between atoms: _124  and  _127
REMARK   57  A    between atoms: _127  and  _128
REMARK   58  A    between atoms: _131  and  _133
REMARK   59  A    between atoms: _133  and  _134
REMARK   60  A    between atoms: _136  and  _138
REMARK   61  A    between atoms: _138  and  _139
REMARK   62  A    between atoms: _141  and  _143
REMARK   63  A    between atoms: _143  and  _144
REMARK   64  A    between atoms: _143  and  _146
REMARK   65  A    between atoms: _146  and  _147
REMARK   66  A    between atoms: _150  and  _152
REMARK   67  A    between atoms: _152  and  _153
REMARK   68  A    between atoms: _155  and  _157
REMARK   69  A    between atoms: _157  and  _158
REMARK   70  A    between atoms: _160  and  _162
REMARK   71  A    between atoms: _162  and  _163
REMARK   72  A    between atoms: _162  and  _165
REMARK   73  A    between atoms: _165  and  _166
REMARK   74  A    between atoms: _172  and  _174
REMARK   75  A    between atoms: _174  and  _175
REMARK   76  A    between atoms: _174  and  _177
REMARK   77  A    between atoms: _177  and  _178
REMARK   78  A    between atoms: _181  and  _183
REMARK   79  A    between atoms: _183  and  _184
REMARK   80  A    between atoms: _183  and  _186
REMARK   81  A    between atoms: _189  and  _191
REMARK   82  A    between atoms: _191  and  _192
REMARK   83  A    between atoms: _191  and  _194
REMARK   84  A    between atoms: _194  and  _195
REMARK   85  A    between atoms: _199  and  _200
REMARK   86  A    between atoms: _205  and  _207
REMARK   87  A    between atoms: _207  and  _208
REMARK   88  A    between atoms: _207  and  _210
REMARK   89  A    between atoms: _210  and  _211
REMARK   90  A    between atoms: _214  and  _215
REMARK   91  A    between atoms: _220  and  _222
REMARK   92  A    between atoms: _222  and  _223
REMARK   93  A    between atoms: _222  and  _225
REMARK   94  A    between atoms: _228  and  _230
REMARK   95  A    between atoms: _230  and  _231
REMARK   96  A    between atoms: _230  and  _233
REMARK   97  A    between atoms: _233  and  _234
REMARK   98  A    between atoms: _239  and  _241
REMARK   99  A    between atoms: _241  and  _242
REMARK  100  A    between atoms: _241  and  _244
REMARK  101  A    between atoms: _244  and  _245
REMARK  102  A    between atoms: _248  and  _250
REMARK  103  A    between atoms: _250  and  _251
REMARK  104  A    between atoms: _250  and  _253
REMARK  105  A    between atoms: _253  and  _254
REMARK  106  A    between atoms: _257  and  _259
REMARK  107  A    between atoms: _259  and  _260
REMARK  108  A    between atoms: _262  and  _264
REMARK  109  A    between atoms: _264  and  _265
REMARK  110  A    between atoms: _264  and  _267
REMARK  111  A    between atoms: _267  and  _268
REMARK  112  A    between atoms: _268  and  _269
REMARK  113  A    between atoms: _269  and  _270
REMARK  114  A    between atoms: _279  and  _281
REMARK  115  A    between atoms: _281  and  _282
REMARK  116  A    between atoms: _281  and  _284
REMARK  117  A    between atoms: _284  and  _285
REMARK  118  A    between atoms: _290  and  _292
REMARK  119  A    between atoms: _292  and  _293
REMARK  120  A    between atoms: _292  and  _295
REMARK  121  A    between atoms: _295  and  _296
REMARK  122  A    between atoms: _296  and  _297
REMARK  123  A    between atoms: _297  and  _298
REMARK  124  A    between atoms: _307  and  _309
REMARK  125  A    between atoms: _309  and  _310
REMARK  126  A    between atoms: _309  and  _312
REMARK  127  A    between atoms: _312  and  _313
REMARK  128  A    between atoms: _316  and  _318
REMARK  129  A    between atoms: _318  and  _319
REMARK  130  A    between atoms: _318  and  _321
REMARK  131  A    between atoms: _321  and  _322
REMARK  132  A    between atoms: _325  and  _327
REMARK  133  A    between atoms: _327  and  _328
REMARK  134  A    between atoms: _327  and  _330
REMARK  135  A    between atoms: _330  and  _331
REMARK  136  A    between atoms: _334  and  _336
REMARK  137  A    between atoms: _336  and  _337
REMARK  138  A    between atoms: _336  and  _339
REMARK  139  A    between atoms: _339  and  _340
REMARK  140  A    between atoms: _343  and  _345
REMARK  141  A    between atoms: _345  and  _346
REMARK  142  A    between atoms: _348  and  _350
REMARK  143  A    between atoms: _350  and  _351
REMARK  144  A    between atoms: _354  and  _356
REMARK  145  A    between atoms: _356  and  _357
REMARK  146  A    between atoms: _356  and  _359
REMARK  147  A    between atoms: _359  and  _360
REMARK  148  A    between atoms: _363  and  _365
REMARK  149  A    between atoms: _365  and  _366
REMARK  150  A    between atoms: _365  and  _368
REMARK  151  A    between atoms: _368  and  _369
REMARK  152  A    between atoms: _372  and  _374
REMARK  153  A    between atoms: _374  and  _375
REMARK  154  A    between atoms: _374  and  _377
REMARK  155  A    between atoms: _377  and  _378
REMARK  156  A    between atoms: _381  and  _383
REMARK  157  A    between atoms: _383  and  _384
REMARK  158  A    between atoms: _383  and  _386
REMARK  159  A    between atoms: _389  and  _391
REMARK  160  A    between atoms: _391  and  _392
REMARK  161  A    between atoms: _391  and  _394
REMARK  162  A    between atoms: _394  and  _395
REMARK  163  A    between atoms: _398  and  _400
REMARK  164  A    between atoms: _400  and  _401
REMARK  165  A    between atoms: _400  and  _403
REMARK  166  A    between atoms: _403  and  _404
REMARK  167  A    between atoms: _404  and  _405
REMARK  168  A    between atoms: _407  and  _409
REMARK  169  A    between atoms: _409  and  _410
REMARK  170  A    between atoms: _409  and  _412
REMARK  171  A    between atoms: _412  and  _413
REMARK  172  A    between atoms: _416  and  _418
REMARK  173  A    between atoms: _418  and  _419
REMARK  174  A    between atoms: _421  and  _423
REMARK  175  A    between atoms: _423  and  _424
REMARK  176  A    between atoms: _426  and  _428
REMARK  177  A    between atoms: _428  and  _429
REMARK  178  A    between atoms: _428  and  _431
REMARK  179  A    between atoms: _431  and  _432
REMARK  180  A    between atoms: _435  and  _437
REMARK  181  A    between atoms: _437  and  _438
REMARK  182  A    between atoms: _440  and  _442
REMARK  183  A    between atoms: _442  and  _443
REMARK  184  A    between atoms: _445  and  _447
REMARK  185  A    between atoms: _447  and  _448
REMARK  186  A    between atoms: _447  and  _450
REMARK  187  A    between atoms: _450  and  _451
REMARK  188  A    between atoms: _457  and  _459
REMARK  189  A    between atoms: _459  and  _460
REMARK  190  A    between atoms: _459  and  _462
REMARK  191  A    between atoms: _462  and  _463
REMARK  192  A    between atoms: _466  and  _468
REMARK  193  A    between atoms: _468  and  _469
REMARK  194  A    between atoms: _468  and  _471
REMARK  195  A    between atoms: _474  and  _476
REMARK  196  A    between atoms: _476  and  _477
REMARK  197  A    between atoms: _476  and  _479
REMARK  198  A    between atoms: _479  and  _480
REMARK  199  A    between atoms: _484  and  _485
REMARK  200  A    between atoms: _490  and  _492
REMARK  201  A    between atoms: _492  and  _493
REMARK  202  A    between atoms: _492  and  _495
REMARK  203  A    between atoms: _495  and  _496
REMARK  204  A    between atoms: _499  and  _500
REMARK  205  A    between atoms: _505  and  _507
REMARK  206  A    between atoms: _507  and  _508
REMARK  207  A    between atoms: _507  and  _510
REMARK  208  A    between atoms: _513  and  _515
REMARK  209  A    between atoms: _515  and  _516
REMARK  210  A    between atoms: _515  and  _518
REMARK  211  A    between atoms: _518  and  _519
REMARK  212  A    between atoms: _524  and  _526
REMARK  213  A    between atoms: _526  and  _527
REMARK  214  A    between atoms: _526  and  _529
REMARK  215  A    between atoms: _529  and  _530
REMARK  216  A    between atoms: _533  and  _535
REMARK  217  A    between atoms: _535  and  _536
REMARK  218  A    between atoms: _535  and  _538
REMARK  219  A    between atoms: _538  and  _539
REMARK  220  A    between atoms: _542  and  _544
REMARK  221  A    between atoms: _544  and  _545
REMARK  222  A    between atoms: _547  and  _549
REMARK  223  A    between atoms: _549  and  _550
REMARK  224  A    between atoms: _549  and  _552
REMARK  225  A    between atoms: _552  and  _553
REMARK  226  A    between atoms: _553  and  _554
REMARK  227  A    between atoms: _554  and  _555
REMARK  228  A    between atoms: _564  and  _566
REMARK  229  A    between atoms: _566  and  _567
REMARK  230  A    between atoms: _566  and  _569
REMARK  231  A    between atoms: _569  and  _570
REMARK                            x       y       z     vdW  Elec       q    Type
REMARK                         _______ _______ _______ _____ _____    ______ ____
ROOT
ATOM      1  O   HOH     1      14.475  -6.441   5.136  0.00  0.00    +0.000 OA
ENDROOT
TORSDOF 0
REMARK  Name = ../refined-set-2016/2fgu/2fgu_pocket.pdb
REMARK  231 active torsions:
REMARK  status: ('A' for Active; 'I' for Inactive)
REMARK    1  A    between atoms: _1  and  _3
REMARK    2  A    between atoms: _3  and  _4
REMARK    3  A    between atoms: _3  and  _6
REMARK    4  A    between atoms: _6  and  _7
REMARK    5  A    between atoms: _7  and  _8
REMARK    6  A    between atoms: _8  and  _9
REMARK    7  A    between atoms: _18  and  _20
REMARK    8  A    between atoms: _20  and  _21
REMARK    9  A    between atoms: _20  and  _23
REMARK   10  A    between atoms: _23  and  _24
REMARK   11  A    between atoms: _27  and  _29
REMARK   12  A    between atoms: _29  and  _30
REMARK   13  A    between atoms: _29  and  _32
REMARK   14  A    between atoms: _32  and  _33
REMARK   15  A    between atoms: _36  and  _38
REMARK   16  A    between atoms: _38  and  _39
REMARK   17  A    between atoms: _38  and  _41
REMARK   18  A    between atoms: _41  and  _42
REMARK   19  A    between atoms: _45  and  _47
REMARK   20  A    between atoms: _47  and  _48
REMARK   21  A    between atoms: _47  and  _50
REMARK   22  A    between atoms: _50  and  _51
REMARK   23  A    between atoms: _54  and  _56
REMARK   24  A    between atoms: _56  and  _57
REMARK   25  A    between atoms: _59  and  _61
REMARK   26  A    between atoms: _61  and  _62
REMARK   27  A    between atoms: _65  and  _67
REMARK   28  A    between atoms: _67  and  _68
REMARK   29  A    between atoms: _67  and  _70
REMARK   30  A    between atoms: _70  and  _71
REMARK   31  A    between atoms: _74  and  _76
REMARK   32  A    between atoms: _76  and  _77
REMARK   33  A    between atoms: _76  and  _79
REMARK   34  A    between atoms: _79  and  _80
REMARK   35  A    between atoms: _83  and  _85
REMARK   36  A    between atoms: _85  and  _86
REMARK   37  A    between atoms: _85  and  _88
REMARK   38  A    between atoms: _88  and  _89
REMARK   39  A    between atoms: _92  and  _94
REMARK   40  A    between atoms: _94  and  _95
REMARK   41  A    between atoms: _94  and  _97
REMARK   42  A    between atoms: _100  and  _102
REMARK   43  A    between atoms: _102  and  _103
REMARK   44  A    between atoms: _102  and  _105
REMARK   45  A    between atoms: _105  and  _106
REMARK   46  A    between atoms: _106  and  _107
REMARK   47  A    between atoms: _107  and  _108
REMARK   48  A    between atoms: _108  and  _109
REMARK   49  A    between atoms: _113  and  _115
REMARK   50  A    between atoms: _115  and  _116
REMARK   51  A    between atoms: _115  and  _118
REMARK   52  A    between atoms: _118  and  _119
REMARK   53  A    between atoms: _119  and  _120
REMARK   54  A    between atoms: _122  and  _124
REMARK   55  A    between atoms: _124  and  _125
REMARK   56  A    between atoms: _124  and  _127
REMARK   57  A    between atoms: _127  and  _128
REMARK   58  A    between atoms: _131  and  _133
REMARK   59  A    between atoms: _133  and  _134
REMARK   60  A    between atoms: _136  and  _138
REMARK   61  A    between atoms: _138  and  _139
REMARK   62  A    between atoms: _141  and  _143
REMARK   63  A    between atoms: _143  and  _144
REMARK   64  A    between atoms: _143  and  _146
REMARK   65  A    between atoms: _146  and  _147
REMARK   66  A    between atoms: _150  and  _152
REMARK   67  A    between atoms: _152  and  _153
REMARK   68  A    between atoms: _155  and  _157
REMARK   69  A    between atoms: _157  and  _158
REMARK   70  A    between atoms: _160  and  _162
REMARK   71  A    between atoms: _162  and  _163
REMARK   72  A    between atoms: _162  and  _165
REMARK   73  A    between atoms: _165  and  _166
REMARK   74  A    between atoms: _172  and  _174
REMARK   75  A    between atoms: _174  and  _175
REMARK   76  A    between atoms: _174  and  _177
REMARK   77  A    between atoms: _177  and  _178
REMARK   78  A    between atoms: _181  and  _183
REMARK   79  A    between atoms: _183  and  _184
REMARK   80  A    between atoms: _183  and  _186
REMARK   81  A    between atoms: _189  and  _191
REMARK   82  A    between atoms: _191  and  _192
REMARK   83  A    between atoms: _191  and  _194
REMARK   84  A    between atoms: _194  and  _195
REMARK   85  A    between atoms: _199  and  _200
REMARK   86  A    between atoms: _205  and  _207
REMARK   87  A    between atoms: _207  and  _208
REMARK   88  A    between atoms: _207  and  _210
REMARK   89  A    between atoms: _210  and  _211
REMARK   90  A    between atoms: _214  and  _215
REMARK   91  A    between atoms: _220  and  _222
REMARK   92  A    between atoms: _222  and  _223
REMARK   93  A    between atoms: _222  and  _225
REMARK   94  A    between atoms: _228  and  _230
REMARK   95  A    between atoms: _230  and  _231
REMARK   96  A    between atoms: _230  and  _233
REMARK   97  A    between atoms: _233  and  _234
REMARK   98  A    between atoms: _239  and  _241
REMARK   99  A    between atoms: _241  and  _242
REMARK  100  A    between atoms: _241  and  _244
REMARK  101  A    between atoms: _244  and  _245
REMARK  102  A    between atoms: _248  and  _250
REMARK  103  A    between atoms: _250  and  _251
REMARK  104  A    between atoms: _250  and  _253
REMARK  105  A    between atoms: _253  and  _254
REMARK  106  A    between atoms: _257  and  _259
REMARK  107  A    between atoms: _259  and  _260
REMARK  108  A    between atoms: _262  and  _264
REMARK  109  A    between atoms: _264  and  _265
REMARK  110  A    between atoms: _264  and  _267
REMARK  111  A    between atoms: _267  and  _268
REMARK  112  A    between atoms: _268  and  _269
REMARK  113  A    between atoms: _269  and  _270
REMARK  114  A    between atoms: _279  and  _281
REMARK  115  A    between atoms: _281  and  _282
REMARK  116  A    between atoms: _281  and  _284
REMARK  117  A    between atoms: _284  and  _285
REMARK  118  A    between atoms: _290  and  _292
REMARK  119  A    between atoms: _292  and  _293
REMARK  120  A    between atoms: _292  and  _295
REMARK  121  A    between atoms: _295  and  _296
REMARK  122  A    between atoms: _296  and  _297
REMARK  123  A    between atoms: _297  and  _298
REMARK  124  A    between atoms: _307  and  _309
REMARK  125  A    between atoms: _309  and  _310
REMARK  126  A    between atoms: _309  and  _312
REMARK  127  A    between atoms: _312  and  _313
REMARK  128  A    between atoms: _316  and  _318
REMARK  129  A    between atoms: _318  and  _319
REMARK  130  A    between atoms: _318  and  _321
REMARK  131  A    between atoms: _321  and  _322
REMARK  132  A    between atoms: _325  and  _327
REMARK  133  A    between atoms: _327  and  _328
REMARK  134  A    between atoms: _327  and  _330
REMARK  135  A    between atoms: _330  and  _331
REMARK  136  A    between atoms: _334  and  _336
REMARK  137  A    between atoms: _336  and  _337
REMARK  138  A    between atoms: _336  and  _339
REMARK  139  A    between atoms: _339  and  _340
REMARK  140  A    between atoms: _343  and  _345
REMARK  141  A    between atoms: _345  and  _346
REMARK  142  A    between atoms: _348  and  _350
REMARK  143  A    between atoms: _350  and  _351
REMARK  144  A    between atoms: _354  and  _356
REMARK  145  A    between atoms: _356  and  _357
REMARK  146  A    between atoms: _356  and  _359
REMARK  147  A    between atoms: _359  and  _360
REMARK  148  A    between atoms: _363  and  _365
REMARK  149  A    between atoms: _365  and  _366
REMARK  150  A    between atoms: _365  and  _368
REMARK  151  A    between atoms: _368  and  _369
REMARK  152  A    between atoms: _372  and  _374
REMARK  153  A    between atoms: _374  and  _375
REMARK  154  A    between atoms: _374  and  _377
REMARK  155  A    between atoms: _377  and  _378
REMARK  156  A    between atoms: _381  and  _383
REMARK  157  A    between atoms: _383  and  _384
REMARK  158  A    between atoms: _383  and  _386
REMARK  159  A    between atoms: _389  and  _391
REMARK  160  A    between atoms: _391  and  _392
REMARK  161  A    between atoms: _391  and  _394
REMARK  162  A    between atoms: _394  and  _395
REMARK  163  A    between atoms: _398  and  _400
REMARK  164  A    between atoms: _400  and  _401
REMARK  165  A    between atoms: _400  and  _403
REMARK  166  A    between atoms: _403  and  _404
REMARK  167  A    between atoms: _404  and  _405
REMARK  168  A    between atoms: _407  and  _409
REMARK  169  A    between atoms: _409  and  _410
REMARK  170  A    between atoms: _409  and  _412
REMARK  171  A    between atoms: _412  and  _413
REMARK  172  A    between atoms: _416  and  _418
REMARK  173  A    between atoms: _418  and  _419
REMARK  174  A    between atoms: _421  and  _423
REMARK  175  A    between atoms: _423  and  _424
REMARK  176  A    between atoms: _426  and  _428
REMARK  177  A    between atoms: _428  and  _429
REMARK  178  A    between atoms: _428  and  _431
REMARK  179  A    between atoms: _431  and  _432
REMARK  180  A    between atoms: _435  and  _437
REMARK  181  A    between atoms: _437  and  _438
REMARK  182  A    between atoms: _440  and  _442
REMARK  183  A    between atoms: _442  and  _443
REMARK  184  A    between atoms: _445  and  _447
REMARK  185  A    between atoms: _447  and  _448
REMARK  186  A    between atoms: _447  and  _450
REMARK  187  A    between atoms: _450  and  _451
REMARK  188  A    between atoms: _457  and  _459
REMARK  189  A    between atoms: _459  and  _460
REMARK  190  A    between atoms: _459  and  _462
REMARK  191  A    between atoms: _462  and  _463
REMARK  192  A    between atoms: _466  and  _468
REMARK  193  A    between atoms: _468  and  _469
REMARK  194  A    between atoms: _468  and  _471
REMARK  195  A    between atoms: _474  and  _476
REMARK  196  A    between atoms: _476  and  _477
REMARK  197  A    between atoms: _476  and  _479
REMARK  198  A    between atoms: _479  and  _480
REMARK  199  A    between atoms: _484  and  _485
REMARK  200  A    between atoms: _490  and  _492
REMARK  201  A    between atoms: _492  and  _493
REMARK  202  A    between atoms: _492  and  _495
REMARK  203  A    between atoms: _495  and  _496
REMARK  204  A    between atoms: _499  and  _500
REMARK  205  A    between atoms: _505  and  _507
REMARK  206  A    between atoms: _507  and  _508
REMARK  207  A    between atoms: _507  and  _510
REMARK  208  A    between atoms: _513  and  _515
REMARK  209  A    between atoms: _515  and  _516
REMARK  210  A    between atoms: _515  and  _518
REMARK  211  A    between atoms: _518  and  _519
REMARK  212  A    between atoms: _524  and  _526
REMARK  213  A    between atoms: _526  and  _527
REMARK  214  A    between atoms: _526  and  _529
REMARK  215  A    between atoms: _529  and  _530
REMARK  216  A    between atoms: _533  and  _535
REMARK  217  A    between atoms: _535  and  _536
REMARK  218  A    between atoms: _535  and  _538
REMARK  219  A    between atoms: _538  and  _539
REMARK  220  A    between atoms: _542  and  _544
REMARK  221  A    between atoms: _544  and  _545
REMARK  222  A    between atoms: _547  and  _549
REMARK  223  A    between atoms: _549  and  _550
REMARK  224  A    between atoms: _549  and  _552
REMARK  225  A    between atoms: _552  and  _553
REMARK  226  A    between atoms: _553  and  _554
REMARK  227  A    between atoms: _554  and  _555
REMARK  228  A    between atoms: _564  and  _566
REMARK  229  A    between atoms: _566  and  _567
REMARK  230  A    between atoms: _566  and  _569
REMARK  231  A    between atoms: _569  and  _570
REMARK                            x       y       z     vdW  Elec       q    Type
REMARK                         _______ _______ _______ _____ _____    ______ ____
ROOT
ATOM      1  O   HOH     1      15.095   8.702  19.812  0.00  0.00    +0.000 OA
ENDROOT
TORSDOF 0
REMARK  Name = ../refined-set-2016/2fgu/2fgu_pocket.pdb
REMARK  231 active torsions:
REMARK  status: ('A' for Active; 'I' for Inactive)
REMARK    1  A    between atoms: _1  and  _3
REMARK    2  A    between atoms: _3  and  _4
REMARK    3  A    between atoms: _3  and  _6
REMARK    4  A    between atoms: _6  and  _7
REMARK    5  A    between atoms: _7  and  _8
REMARK    6  A    between atoms: _8  and  _9
REMARK    7  A    between atoms: _18  and  _20
REMARK    8  A    between atoms: _20  and  _21
REMARK    9  A    between atoms: _20  and  _23
REMARK   10  A    between atoms: _23  and  _24
REMARK   11  A    between atoms: _27  and  _29
REMARK   12  A    between atoms: _29  and  _30
REMARK   13  A    between atoms: _29  and  _32
REMARK   14  A    between atoms: _32  and  _33
REMARK   15  A    between atoms: _36  and  _38
REMARK   16  A    between atoms: _38  and  _39
REMARK   17  A    between atoms: _38  and  _41
REMARK   18  A    between atoms: _41  and  _42
REMARK   19  A    between atoms: _45  and  _47
REMARK   20  A    between atoms: _47  and  _48
REMARK   21  A    between atoms: _47  and  _50
REMARK   22  A    between atoms: _50  and  _51
REMARK   23  A    between atoms: _54  and  _56
REMARK   24  A    between atoms: _56  and  _57
REMARK   25  A    between atoms: _59  and  _61
REMARK   26  A    between atoms: _61  and  _62
REMARK   27  A    between atoms: _65  and  _67
REMARK   28  A    between atoms: _67  and  _68
REMARK   29  A    between atoms: _67  and  _70
REMARK   30  A    between atoms: _70  and  _71
REMARK   31  A    between atoms: _74  and  _76
REMARK   32  A    between atoms: _76  and  _77
REMARK   33  A    between atoms: _76  and  _79
REMARK   34  A    between atoms: _79  and  _80
REMARK   35  A    between atoms: _83  and  _85
REMARK   36  A    between atoms: _85  and  _86
REMARK   37  A    between atoms: _85  and  _88
REMARK   38  A    between atoms: _88  and  _89
REMARK   39  A    between atoms: _92  and  _94
REMARK   40  A    between atoms: _94  and  _95
REMARK   41  A    between atoms: _94  and  _97
REMARK   42  A    between atoms: _100  and  _102
REMARK   43  A    between atoms: _102  and  _103
REMARK   44  A    between atoms: _102  and  _105
REMARK   45  A    between atoms: _105  and  _106
REMARK   46  A    between atoms: _106  and  _107
REMARK   47  A    between atoms: _107  and  _108
REMARK   48  A    between atoms: _108  and  _109
REMARK   49  A    between atoms: _113  and  _115
REMARK   50  A    between atoms: _115  and  _116
REMARK   51  A    between atoms: _115  and  _118
REMARK   52  A    between atoms: _118  and  _119
REMARK   53  A    between atoms: _119  and  _120
REMARK   54  A    between atoms: _122  and  _124
REMARK   55  A    between atoms: _124  and  _125
REMARK   56  A    between atoms: _124  and  _127
REMARK   57  A    between atoms: _127  and  _128
REMARK   58  A    between atoms: _131  and  _133
REMARK   59  A    between atoms: _133  and  _134
REMARK   60  A    between atoms: _136  and  _138
REMARK   61  A    between atoms: _138  and  _139
REMARK   62  A    between atoms: _141  and  _143
REMARK   63  A    between atoms: _143  and  _144
REMARK   64  A    between atoms: _143  and  _146
REMARK   65  A    between atoms: _146  and  _147
REMARK   66  A    between atoms: _150  and  _152
REMARK   67  A    between atoms: _152  and  _153
REMARK   68  A    between atoms: _155  and  _157
REMARK   69  A    between atoms: _157  and  _158
REMARK   70  A    between atoms: _160  and  _162
REMARK   71  A    between atoms: _162  and  _163
REMARK   72  A    between atoms: _162  and  _165
REMARK   73  A    between atoms: _165  and  _166
REMARK   74  A    between atoms: _172  and  _174
REMARK   75  A    between atoms: _174  and  _175
REMARK   76  A    between atoms: _174  and  _177
REMARK   77  A    between atoms: _177  and  _178
REMARK   78  A    between atoms: _181  and  _183
REMARK   79  A    between atoms: _183  and  _184
REMARK   80  A    between atoms: _183  and  _186
REMARK   81  A    between atoms: _189  and  _191
REMARK   82  A    between atoms: _191  and  _192
REMARK   83  A    between atoms: _191  and  _194
REMARK   84  A    between atoms: _194  and  _195
REMARK   85  A    between atoms: _199  and  _200
REMARK   86  A    between atoms: _205  and  _207
REMARK   87  A    between atoms: _207  and  _208
REMARK   88  A    between atoms: _207  and  _210
REMARK   89  A    between atoms: _210  and  _211
REMARK   90  A    between atoms: _214  and  _215
REMARK   91  A    between atoms: _220  and  _222
REMARK   92  A    between atoms: _222  and  _223
REMARK   93  A    between atoms: _222  and  _225
REMARK   94  A    between atoms: _228  and  _230
REMARK   95  A    between atoms: _230  and  _231
REMARK   96  A    between atoms: _230  and  _233
REMARK   97  A    between atoms: _233  and  _234
REMARK   98  A    between atoms: _239  and  _241
REMARK   99  A    between atoms: _241  and  _242
REMARK  100  A    between atoms: _241  and  _244
REMARK  101  A    between atoms: _244  and  _245
REMARK  102  A    between atoms: _248  and  _250
REMARK  103  A    between atoms: _250  and  _251
REMARK  104  A    between atoms: _250  and  _253
REMARK  105  A    between atoms: _253  and  _254
REMARK  106  A    between atoms: _257  and  _259
REMARK  107  A    between atoms: _259  and  _260
REMARK  108  A    between atoms: _262  and  _264
REMARK  109  A    between atoms: _264  and  _265
REMARK  110  A    between atoms: _264  and  _267
REMARK  111  A    between atoms: _267  and  _268
REMARK  112  A    between atoms: _268  and  _269
REMARK  113  A    between atoms: _269  and  _270
REMARK  114  A    between atoms: _279  and  _281
REMARK  115  A    between atoms: _281  and  _282
REMARK  116  A    between atoms: _281  and  _284
REMARK  117  A    between atoms: _284  and  _285
REMARK  118  A    between atoms: _290  and  _292
REMARK  119  A    between atoms: _292  and  _293
REMARK  120  A    between atoms: _292  and  _295
REMARK  121  A    between atoms: _295  and  _296
REMARK  122  A    between atoms: _296  and  _297
REMARK  123  A    between atoms: _297  and  _298
REMARK  124  A    between atoms: _307  and  _309
REMARK  125  A    between atoms: _309  and  _310
REMARK  126  A    between atoms: _309  and  _312
REMARK  127  A    between atoms: _312  and  _313
REMARK  128  A    between atoms: _316  and  _318
REMARK  129  A    between atoms: _318  and  _319
REMARK  130  A    between atoms: _318  and  _321
REMARK  131  A    between atoms: _321  and  _322
REMARK  132  A    between atoms: _325  and  _327
REMARK  133  A    between atoms: _327  and  _328
REMARK  134  A    between atoms: _327  and  _330
REMARK  135  A    between atoms: _330  and  _331
REMARK  136  A    between atoms: _334  and  _336
REMARK  137  A    between atoms: _336  and  _337
REMARK  138  A    between atoms: _336  and  _339
REMARK  139  A    between atoms: _339  and  _340
REMARK  140  A    between atoms: _343  and  _345
REMARK  141  A    between atoms: _345  and  _346
REMARK  142  A    between atoms: _348  and  _350
REMARK  143  A    between atoms: _350  and  _351
REMARK  144  A    between atoms: _354  and  _356
REMARK  145  A    between atoms: _356  and  _357
REMARK  146  A    between atoms: _356  and  _359
REMARK  147  A    between atoms: _359  and  _360
REMARK  148  A    between atoms: _363  and  _365
REMARK  149  A    between atoms: _365  and  _366
REMARK  150  A    between atoms: _365  and  _368
REMARK  151  A    between atoms: _368  and  _369
REMARK  152  A    between atoms: _372  and  _374
REMARK  153  A    between atoms: _374  and  _375
REMARK  154  A    between atoms: _374  and  _377
REMARK  155  A    between atoms: _377  and  _378
REMARK  156  A    between atoms: _381  and  _383
REMARK  157  A    between atoms: _383  and  _384
REMARK  158  A    between atoms: _383  and  _386
REMARK  159  A    between atoms: _389  and  _391
REMARK  160  A    between atoms: _391  and  _392
REMARK  161  A    between atoms: _391  and  _394
REMARK  162  A    between atoms: _394  and  _395
REMARK  163  A    between atoms: _398  and  _400
REMARK  164  A    between atoms: _400  and  _401
REMARK  165  A    between atoms: _400  and  _403
REMARK  166  A    between atoms: _403  and  _404
REMARK  167  A    between atoms: _404  and  _405
REMARK  168  A    between atoms: _407  and  _409
REMARK  169  A    between atoms: _409  and  _410
REMARK  170  A    between atoms: _409  and  _412
REMARK  171  A    between atoms: _412  and  _413
REMARK  172  A    between atoms: _416  and  _418
REMARK  173  A    between atoms: _418  and  _419
REMARK  174  A    between atoms: _421  and  _423
REMARK  175  A    between atoms: _423  and  _424
REMARK  176  A    between atoms: _426  and  _428
REMARK  177  A    between atoms: _428  and  _429
REMARK  178  A    between atoms: _428  and  _431
REMARK  179  A    between atoms: _431  and  _432
REMARK  180  A    between atoms: _435  and  _437
REMARK  181  A    between atoms: _437  and  _438
REMARK  182  A    between atoms: _440  and  _442
REMARK  183  A    between atoms: _442  and  _443
REMARK  184  A    between atoms: _445  and  _447
REMARK  185  A    between atoms: _447  and  _448
REMARK  186  A    between atoms: _447  and  _450
REMARK  187  A    between atoms: _450  and  _451
REMARK  188  A    between atoms: _457  and  _459
REMARK  189  A    between atoms: _459  and  _460
REMARK  190  A    between atoms: _459  and  _462
REMARK  191  A    between atoms: _462  and  _463
REMARK  192  A    between atoms: _466  and  _468
REMARK  193  A    between atoms: _468  and  _469
REMARK  194  A    between atoms: _468  and  _471
REMARK  195  A    between atoms: _474  and  _476
REMARK  196  A    between atoms: _476  and  _477
REMARK  197  A    between atoms: _476  and  _479
REMARK  198  A    between atoms: _479  and  _480
REMARK  199  A    between atoms: _484  and  _485
REMARK  200  A    between atoms: _490  and  _492
REMARK  201  A    between atoms: _492  and  _493
REMARK  202  A    between atoms: _492  and  _495
REMARK  203  A    between atoms: _495  and  _496
REMARK  204  A    between atoms: _499  and  _500
REMARK  205  A    between atoms: _505  and  _507
REMARK  206  A    between atoms: _507  and  _508
REMARK  207  A    between atoms: _507  and  _510
REMARK  208  A    between atoms: _513  and  _515
REMARK  209  A    between atoms: _515  and  _516
REMARK  210  A    between atoms: _515  and  _518
REMARK  211  A    between atoms: _518  and  _519
REMARK  212  A    between atoms: _524  and  _526
REMARK  213  A    between atoms: _526  and  _527
REMARK  214  A    between atoms: _526  and  _529
REMARK  215  A    between atoms: _529  and  _530
REMARK  216  A    between atoms: _533  and  _535
REMARK  217  A    between atoms: _535  and  _536
REMARK  218  A    between atoms: _535  and  _538
REMARK  219  A    between atoms: _538  and  _539
REMARK  220  A    between atoms: _542  and  _544
REMARK  221  A    between atoms: _544  and  _545
REMARK  222  A    between atoms: _547  and  _549
REMARK  223  A    between atoms: _549  and  _550
REMARK  224  A    between atoms: _549  and  _552
REMARK  225  A    between atoms: _552  and  _553
REMARK  226  A    between atoms: _553  and  _554
REMARK  227  A    between atoms: _554  and  _555
REMARK  228  A    between atoms: _564  and  _566
REMARK  229  A    between atoms: _566  and  _567
REMARK  230  A    between atoms: _566  and  _569
REMARK  231  A    between atoms: _569  and  _570
REMARK                            x       y       z     vdW  Elec       q    Type
REMARK                         _______ _______ _______ _____ _____    ______ ____
ROOT
ATOM      1  O   HOH     1      13.789  -9.884   8.263  0.00  0.00    +0.000 OA
ENDROOT
TORSDOF 0
REMARK  Name = ../refined-set-2016/2fgu/2fgu_pocket.pdb
REMARK  231 active torsions:
REMARK  status: ('A' for Active; 'I' for Inactive)
REMARK    1  A    between atoms: _1  and  _3
REMARK    2  A    between atoms: _3  and  _4
REMARK    3  A    between atoms: _3  and  _6
REMARK    4  A    between atoms: _6  and  _7
REMARK    5  A    between atoms: _7  and  _8
REMARK    6  A    between atoms: _8  and  _9
REMARK    7  A    between atoms: _18  and  _20
REMARK    8  A    between atoms: _20  and  _21
REMARK    9  A    between atoms: _20  and  _23
REMARK   10  A    between atoms: _23  and  _24
REMARK   11  A    between atoms: _27  and  _29
REMARK   12  A    between atoms: _29  and  _30
REMARK   13  A    between atoms: _29  and  _32
REMARK   14  A    between atoms: _32  and  _33
REMARK   15  A    between atoms: _36  and  _38
REMARK   16  A    between atoms: _38  and  _39
REMARK   17  A    between atoms: _38  and  _41
REMARK   18  A    between atoms: _41  and  _42
REMARK   19  A    between atoms: _45  and  _47
REMARK   20  A    between atoms: _47  and  _48
REMARK   21  A    between atoms: _47  and  _50
REMARK   22  A    between atoms: _50  and  _51
REMARK   23  A    between atoms: _54  and  _56
REMARK   24  A    between atoms: _56  and  _57
REMARK   25  A    between atoms: _59  and  _61
REMARK   26  A    between atoms: _61  and  _62
REMARK   27  A    between atoms: _65  and  _67
REMARK   28  A    between atoms: _67  and  _68
REMARK   29  A    between atoms: _67  and  _70
REMARK   30  A    between atoms: _70  and  _71
REMARK   31  A    between atoms: _74  and  _76
REMARK   32  A    between atoms: _76  and  _77
REMARK   33  A    between atoms: _76  and  _79
REMARK   34  A    between atoms: _79  and  _80
REMARK   35  A    between atoms: _83  and  _85
REMARK   36  A    between atoms: _85  and  _86
REMARK   37  A    between atoms: _85  and  _88
REMARK   38  A    between atoms: _88  and  _89
REMARK   39  A    between atoms: _92  and  _94
REMARK   40  A    between atoms: _94  and  _95
REMARK   41  A    between atoms: _94  and  _97
REMARK   42  A    between atoms: _100  and  _102
REMARK   43  A    between atoms: _102  and  _103
REMARK   44  A    between atoms: _102  and  _105
REMARK   45  A    between atoms: _105  and  _106
REMARK   46  A    between atoms: _106  and  _107
REMARK   47  A    between atoms: _107  and  _108
REMARK   48  A    between atoms: _108  and  _109
REMARK   49  A    between atoms: _113  and  _115
REMARK   50  A    between atoms: _115  and  _116
REMARK   51  A    between atoms: _115  and  _118
REMARK   52  A    between atoms: _118  and  _119
REMARK   53  A    between atoms: _119  and  _120
REMARK   54  A    between atoms: _122  and  _124
REMARK   55  A    between atoms: _124  and  _125
REMARK   56  A    between atoms: _124  and  _127
REMARK   57  A    between atoms: _127  and  _128
REMARK   58  A    between atoms: _131  and  _133
REMARK   59  A    between atoms: _133  and  _134
REMARK   60  A    between atoms: _136  and  _138
REMARK   61  A    between atoms: _138  and  _139
REMARK   62  A    between atoms: _141  and  _143
REMARK   63  A    between atoms: _143  and  _144
REMARK   64  A    between atoms: _143  and  _146
REMARK   65  A    between atoms: _146  and  _147
REMARK   66  A    between atoms: _150  and  _152
REMARK   67  A    between atoms: _152  and  _153
REMARK   68  A    between atoms: _155  and  _157
REMARK   69  A    between atoms: _157  and  _158
REMARK   70  A    between atoms: _160  and  _162
REMARK   71  A    between atoms: _162  and  _163
REMARK   72  A    between atoms: _162  and  _165
REMARK   73  A    between atoms: _165  and  _166
REMARK   74  A    between atoms: _172  and  _174
REMARK   75  A    between atoms: _174  and  _175
REMARK   76  A    between atoms: _174  and  _177
REMARK   77  A    between atoms: _177  and  _178
REMARK   78  A    between atoms: _181  and  _183
REMARK   79  A    between atoms: _183  and  _184
REMARK   80  A    between atoms: _183  and  _186
REMARK   81  A    between atoms: _189  and  _191
REMARK   82  A    between atoms: _191  and  _192
REMARK   83  A    between atoms: _191  and  _194
REMARK   84  A    between atoms: _194  and  _195
REMARK   85  A    between atoms: _199  and  _200
REMARK   86  A    between atoms: _205  and  _207
REMARK   87  A    between atoms: _207  and  _208
REMARK   88  A    between atoms: _207  and  _210
REMARK   89  A    between atoms: _210  and  _211
REMARK   90  A    between atoms: _214  and  _215
REMARK   91  A    between atoms: _220  and  _222
REMARK   92  A    between atoms: _222  and  _223
REMARK   93  A    between atoms: _222  and  _225
REMARK   94  A    between atoms: _228  and  _230
REMARK   95  A    between atoms: _230  and  _231
REMARK   96  A    between atoms: _230  and  _233
REMARK   97  A    between atoms: _233  and  _234
REMARK   98  A    between atoms: _239  and  _241
REMARK   99  A    between atoms: _241  and  _242
REMARK  100  A    between atoms: _241  and  _244
REMARK  101  A    between atoms: _244  and  _245
REMARK  102  A    between atoms: _248  and  _250
REMARK  103  A    between atoms: _250  and  _251
REMARK  104  A    between atoms: _250  and  _253
REMARK  105  A    between atoms: _253  and  _254
REMARK  106  A    between atoms: _257  and  _259
REMARK  107  A    between atoms: _259  and  _260
REMARK  108  A    between atoms: _262  and  _264
REMARK  109  A    between atoms: _264  and  _265
REMARK  110  A    between atoms: _264  and  _267
REMARK  111  A    between atoms: _267  and  _268
REMARK  112  A    between atoms: _268  and  _269
REMARK  113  A    between atoms: _269  and  _270
REMARK  114  A    between atoms: _279  and  _281
REMARK  115  A    between atoms: _281  and  _282
REMARK  116  A    between atoms: _281  and  _284
REMARK  117  A    between atoms: _284  and  _285
REMARK  118  A    between atoms: _290  and  _292
REMARK  119  A    between atoms: _292  and  _293
REMARK  120  A    between atoms: _292  and  _295
REMARK  121  A    between atoms: _295  and  _296
REMARK  122  A    between atoms: _296  and  _297
REMARK  123  A    between atoms: _297  and  _298
REMARK  124  A    between atoms: _307  and  _309
REMARK  125  A    between atoms: _309  and  _310
REMARK  126  A    between atoms: _309  and  _312
REMARK  127  A    between atoms: _312  and  _313
REMARK  128  A    between atoms: _316  and  _318
REMARK  129  A    between atoms: _318  and  _319
REMARK  130  A    between atoms: _318  and  _321
REMARK  131  A    between atoms: _321  and  _322
REMARK  132  A    between atoms: _325  and  _327
REMARK  133  A    between atoms: _327  and  _328
REMARK  134  A    between atoms: _327  and  _330
REMARK  135  A    between atoms: _330  and  _331
REMARK  136  A    between atoms: _334  and  _336
REMARK  137  A    between atoms: _336  and  _337
REMARK  138  A    between atoms: _336  and  _339
REMARK  139  A    between atoms: _339  and  _340
REMARK  140  A    between atoms: _343  and  _345
REMARK  141  A    between atoms: _345  and  _346
REMARK  142  A    between atoms: _348  and  _350
REMARK  143  A    between atoms: _350  and  _351
REMARK  144  A    between atoms: _354  and  _356
REMARK  145  A    between atoms: _356  and  _357
REMARK  146  A    between atoms: _356  and  _359
REMARK  147  A    between atoms: _359  and  _360
REMARK  148  A    between atoms: _363  and  _365
REMARK  149  A    between atoms: _365  and  _366
REMARK  150  A    between atoms: _365  and  _368
REMARK  151  A    between atoms: _368  and  _369
REMARK  152  A    between atoms: _372  and  _374
REMARK  153  A    between atoms: _374  and  _375
REMARK  154  A    between atoms: _374  and  _377
REMARK  155  A    between atoms: _377  and  _378
REMARK  156  A    between atoms: _381  and  _383
REMARK  157  A    between atoms: _383  and  _384
REMARK  158  A    between atoms: _383  and  _386
REMARK  159  A    between atoms: _389  and  _391
REMARK  160  A    between atoms: _391  and  _392
REMARK  161  A    between atoms: _391  and  _394
REMARK  162  A    between atoms: _394  and  _395
REMARK  163  A    between atoms: _398  and  _400
REMARK  164  A    between atoms: _400  and  _401
REMARK  165  A    between atoms: _400  and  _403
REMARK  166  A    between atoms: _403  and  _404
REMARK  167  A    between atoms: _404  and  _405
REMARK  168  A    between atoms: _407  and  _409
REMARK  169  A    between atoms: _409  and  _410
REMARK  170  A    between atoms: _409  and  _412
REMARK  171  A    between atoms: _412  and  _413
REMARK  172  A    between atoms: _416  and  _418
REMARK  173  A    between atoms: _418  and  _419
REMARK  174  A    between atoms: _421  and  _423
REMARK  175  A    between atoms: _423  and  _424
REMARK  176  A    between atoms: _426  and  _428
REMARK  177  A    between atoms: _428  and  _429
REMARK  178  A    between atoms: _428  and  _431
REMARK  179  A    between atoms: _431  and  _432
REMARK  180  A    between atoms: _435  and  _437
REMARK  181  A    between atoms: _437  and  _438
REMARK  182  A    between atoms: _440  and  _442
REMARK  183  A    between atoms: _442  and  _443
REMARK  184  A    between atoms: _445  and  _447
REMARK  185  A    between atoms: _447  and  _448
REMARK  186  A    between atoms: _447  and  _450
REMARK  187  A    between atoms: _450  and  _451
REMARK  188  A    between atoms: _457  and  _459
REMARK  189  A    between atoms: _459  and  _460
REMARK  190  A    between atoms: _459  and  _462
REMARK  191  A    between atoms: _462  and  _463
REMARK  192  A    between atoms: _466  and  _468
REMARK  193  A    between atoms: _468  and  _469
REMARK  194  A    between atoms: _468  and  _471
REMARK  195  A    between atoms: _474  and  _476
REMARK  196  A    between atoms: _476  and  _477
REMARK  197  A    between atoms: _476  and  _479
REMARK  198  A    between atoms: _479  and  _480
REMARK  199  A    between atoms: _484  and  _485
REMARK  200  A    between atoms: _490  and  _492
REMARK  201  A    between atoms: _492  and  _493
REMARK  202  A    between atoms: _492  and  _495
REMARK  203  A    between atoms: _495  and  _496
REMARK  204  A    between atoms: _499  and  _500
REMARK  205  A    between atoms: _505  and  _507
REMARK  206  A    between atoms: _507  and  _508
REMARK  207  A    between atoms: _507  and  _510
REMARK  208  A    between atoms: _513  and  _515
REMARK  209  A    between atoms: _515  and  _516
REMARK  210  A    between atoms: _515  and  _518
REMARK  211  A    between atoms: _518  and  _519
REMARK  212  A    between atoms: _524  and  _526
REMARK  213  A    between atoms: _526  and  _527
REMARK  214  A    between atoms: _526  and  _529
REMARK  215  A    between atoms: _529  and  _530
REMARK  216  A    between atoms: _533  and  _535
REMARK  217  A    between atoms: _535  and  _536
REMARK  218  A    between atoms: _535  and  _538
REMARK  219  A    between atoms: _538  and  _539
REMARK  220  A    between atoms: _542  and  _544
REMARK  221  A    between atoms: _544  and  _545
REMARK  222  A    between atoms: _547  and  _549
REMARK  223  A    between atoms: _549  and  _550
REMARK  224  A    between atoms: _549  and  _552
REMARK  225  A    between atoms: _552  and  _553
REMARK  226  A    between atoms: _553  and  _554
REMARK  227  A    between atoms: _554  and  _555
REMARK  228  A    between atoms: _564  and  _566
REMARK  229  A    between atoms: _566  and  _567
REMARK  230  A    between atoms: _566  and  _569
REMARK  231  A    between atoms: _569  and  _570
REMARK                            x       y       z     vdW  Elec       q    Type
REMARK                         _______ _______ _______ _____ _____    ______ ____
ROOT
ATOM      1  O   HOH     1      18.848 -12.000  13.883  0.00  0.00    +0.000 OA
ENDROOT
TORSDOF 0
REMARK  Name = ../refined-set-2016/2fgu/2fgu_pocket.pdb
REMARK  231 active torsions:
REMARK  status: ('A' for Active; 'I' for Inactive)
REMARK    1  A    between atoms: _1  and  _3
REMARK    2  A    between atoms: _3  and  _4
REMARK    3  A    between atoms: _3  and  _6
REMARK    4  A    between atoms: _6  and  _7
REMARK    5  A    between atoms: _7  and  _8
REMARK    6  A    between atoms: _8  and  _9
REMARK    7  A    between atoms: _18  and  _20
REMARK    8  A    between atoms: _20  and  _21
REMARK    9  A    between atoms: _20  and  _23
REMARK   10  A    between atoms: _23  and  _24
REMARK   11  A    between atoms: _27  and  _29
REMARK   12  A    between atoms: _29  and  _30
REMARK   13  A    between atoms: _29  and  _32
REMARK   14  A    between atoms: _32  and  _33
REMARK   15  A    between atoms: _36  and  _38
REMARK   16  A    between atoms: _38  and  _39
REMARK   17  A    between atoms: _38  and  _41
REMARK   18  A    between atoms: _41  and  _42
REMARK   19  A    between atoms: _45  and  _47
REMARK   20  A    between atoms: _47  and  _48
REMARK   21  A    between atoms: _47  and  _50
REMARK   22  A    between atoms: _50  and  _51
REMARK   23  A    between atoms: _54  and  _56
REMARK   24  A    between atoms: _56  and  _57
REMARK   25  A    between atoms: _59  and  _61
REMARK   26  A    between atoms: _61  and  _62
REMARK   27  A    between atoms: _65  and  _67
REMARK   28  A    between atoms: _67  and  _68
REMARK   29  A    between atoms: _67  and  _70
REMARK   30  A    between atoms: _70  and  _71
REMARK   31  A    between atoms: _74  and  _76
REMARK   32  A    between atoms: _76  and  _77
REMARK   33  A    between atoms: _76  and  _79
REMARK   34  A    between atoms: _79  and  _80
REMARK   35  A    between atoms: _83  and  _85
REMARK   36  A    between atoms: _85  and  _86
REMARK   37  A    between atoms: _85  and  _88
REMARK   38  A    between atoms: _88  and  _89
REMARK   39  A    between atoms: _92  and  _94
REMARK   40  A    between atoms: _94  and  _95
REMARK   41  A    between atoms: _94  and  _97
REMARK   42  A    between atoms: _100  and  _102
REMARK   43  A    between atoms: _102  and  _103
REMARK   44  A    between atoms: _102  and  _105
REMARK   45  A    between atoms: _105  and  _106
REMARK   46  A    between atoms: _106  and  _107
REMARK   47  A    between atoms: _107  and  _108
REMARK   48  A    between atoms: _108  and  _109
REMARK   49  A    between atoms: _113  and  _115
REMARK   50  A    between atoms: _115  and  _116
REMARK   51  A    between atoms: _115  and  _118
REMARK   52  A    between atoms: _118  and  _119
REMARK   53  A    between atoms: _119  and  _120
REMARK   54  A    between atoms: _122  and  _124
REMARK   55  A    between atoms: _124  and  _125
REMARK   56  A    between atoms: _124  and  _127
REMARK   57  A    between atoms: _127  and  _128
REMARK   58  A    between atoms: _131  and  _133
REMARK   59  A    between atoms: _133  and  _134
REMARK   60  A    between atoms: _136  and  _138
REMARK   61  A    between atoms: _138  and  _139
REMARK   62  A    between atoms: _141  and  _143
REMARK   63  A    between atoms: _143  and  _144
REMARK   64  A    between atoms: _143  and  _146
REMARK   65  A    between atoms: _146  and  _147
REMARK   66  A    between atoms: _150  and  _152
REMARK   67  A    between atoms: _152  and  _153
REMARK   68  A    between atoms: _155  and  _157
REMARK   69  A    between atoms: _157  and  _158
REMARK   70  A    between atoms: _160  and  _162
REMARK   71  A    between atoms: _162  and  _163
REMARK   72  A    between atoms: _162  and  _165
REMARK   73  A    between atoms: _165  and  _166
REMARK   74  A    between atoms: _172  and  _174
REMARK   75  A    between atoms: _174  and  _175
REMARK   76  A    between atoms: _174  and  _177
REMARK   77  A    between atoms: _177  and  _178
REMARK   78  A    between atoms: _181  and  _183
REMARK   79  A    between atoms: _183  and  _184
REMARK   80  A    between atoms: _183  and  _186
REMARK   81  A    between atoms: _189  and  _191
REMARK   82  A    between atoms: _191  and  _192
REMARK   83  A    between atoms: _191  and  _194
REMARK   84  A    between atoms: _194  and  _195
REMARK   85  A    between atoms: _199  and  _200
REMARK   86  A    between atoms: _205  and  _207
REMARK   87  A    between atoms: _207  and  _208
REMARK   88  A    between atoms: _207  and  _210
REMARK   89  A    between atoms: _210  and  _211
REMARK   90  A    between atoms: _214  and  _215
REMARK   91  A    between atoms: _220  and  _222
REMARK   92  A    between atoms: _222  and  _223
REMARK   93  A    between atoms: _222  and  _225
REMARK   94  A    between atoms: _228  and  _230
REMARK   95  A    between atoms: _230  and  _231
REMARK   96  A    between atoms: _230  and  _233
REMARK   97  A    between atoms: _233  and  _234
REMARK   98  A    between atoms: _239  and  _241
REMARK   99  A    between atoms: _241  and  _242
REMARK  100  A    between atoms: _241  and  _244
REMARK  101  A    between atoms: _244  and  _245
REMARK  102  A    between atoms: _248  and  _250
REMARK  103  A    between atoms: _250  and  _251
REMARK  104  A    between atoms: _250  and  _253
REMARK  105  A    between atoms: _253  and  _254
REMARK  106  A    between atoms: _257  and  _259
REMARK  107  A    between atoms: _259  and  _260
REMARK  108  A    between atoms: _262  and  _264
REMARK  109  A    between atoms: _264  and  _265
REMARK  110  A    between atoms: _264  and  _267
REMARK  111  A    between atoms: _267  and  _268
REMARK  112  A    between atoms: _268  and  _269
REMARK  113  A    between atoms: _269  and  _270
REMARK  114  A    between atoms: _279  and  _281
REMARK  115  A    between atoms: _281  and  _282
REMARK  116  A    between atoms: _281  and  _284
REMARK  117  A    between atoms: _284  and  _285
REMARK  118  A    between atoms: _290  and  _292
REMARK  119  A    between atoms: _292  and  _293
REMARK  120  A    between atoms: _292  and  _295
REMARK  121  A    between atoms: _295  and  _296
REMARK  122  A    between atoms: _296  and  _297
REMARK  123  A    between atoms: _297  and  _298
REMARK  124  A    between atoms: _307  and  _309
REMARK  125  A    between atoms: _309  and  _310
REMARK  126  A    between atoms: _309  and  _312
REMARK  127  A    between atoms: _312  and  _313
REMARK  128  A    between atoms: _316  and  _318
REMARK  129  A    between atoms: _318  and  _319
REMARK  130  A    between atoms: _318  and  _321
REMARK  131  A    between atoms: _321  and  _322
REMARK  132  A    between atoms: _325  and  _327
REMARK  133  A    between atoms: _327  and  _328
REMARK  134  A    between atoms: _327  and  _330
REMARK  135  A    between atoms: _330  and  _331
REMARK  136  A    between atoms: _334  and  _336
REMARK  137  A    between atoms: _336  and  _337
REMARK  138  A    between atoms: _336  and  _339
REMARK  139  A    between atoms: _339  and  _340
REMARK  140  A    between atoms: _343  and  _345
REMARK  141  A    between atoms: _345  and  _346
REMARK  142  A    between atoms: _348  and  _350
REMARK  143  A    between atoms: _350  and  _351
REMARK  144  A    between atoms: _354  and  _356
REMARK  145  A    between atoms: _356  and  _357
REMARK  146  A    between atoms: _356  and  _359
REMARK  147  A    between atoms: _359  and  _360
REMARK  148  A    between atoms: _363  and  _365
REMARK  149  A    between atoms: _365  and  _366
REMARK  150  A    between atoms: _365  and  _368
REMARK  151  A    between atoms: _368  and  _369
REMARK  152  A    between atoms: _372  and  _374
REMARK  153  A    between atoms: _374  and  _375
REMARK  154  A    between atoms: _374  and  _377
REMARK  155  A    between atoms: _377  and  _378
REMARK  156  A    between atoms: _381  and  _383
REMARK  157  A    between atoms: _383  and  _384
REMARK  158  A    between atoms: _383  and  _386
REMARK  159  A    between atoms: _389  and  _391
REMARK  160  A    between atoms: _391  and  _392
REMARK  161  A    between atoms: _391  and  _394
REMARK  162  A    between atoms: _394  and  _395
REMARK  163  A    between atoms: _398  and  _400
REMARK  164  A    between atoms: _400  and  _401
REMARK  165  A    between atoms: _400  and  _403
REMARK  166  A    between atoms: _403  and  _404
REMARK  167  A    between atoms: _404  and  _405
REMARK  168  A    between atoms: _407  and  _409
REMARK  169  A    between atoms: _409  and  _410
REMARK  170  A    between atoms: _409  and  _412
REMARK  171  A    between atoms: _412  and  _413
REMARK  172  A    between atoms: _416  and  _418
REMARK  173  A    between atoms: _418  and  _419
REMARK  174  A    between atoms: _421  and  _423
REMARK  175  A    between atoms: _423  and  _424
REMARK  176  A    between atoms: _426  and  _428
REMARK  177  A    between atoms: _428  and  _429
REMARK  178  A    between atoms: _428  and  _431
REMARK  179  A    between atoms: _431  and  _432
REMARK  180  A    between atoms: _435  and  _437
REMARK  181  A    between atoms: _437  and  _438
REMARK  182  A    between atoms: _440  and  _442
REMARK  183  A    between atoms: _442  and  _443
REMARK  184  A    between atoms: _445  and  _447
REMARK  185  A    between atoms: _447  and  _448
REMARK  186  A    between atoms: _447  and  _450
REMARK  187  A    between atoms: _450  and  _451
REMARK  188  A    between atoms: _457  and  _459
REMARK  189  A    between atoms: _459  and  _460
REMARK  190  A    between atoms: _459  and  _462
REMARK  191  A    between atoms: _462  and  _463
REMARK  192  A    between atoms: _466  and  _468
REMARK  193  A    between atoms: _468  and  _469
REMARK  194  A    between atoms: _468  and  _471
REMARK  195  A    between atoms: _474  and  _476
REMARK  196  A    between atoms: _476  and  _477
REMARK  197  A    between atoms: _476  and  _479
REMARK  198  A    between atoms: _479  and  _480
REMARK  199  A    between atoms: _484  and  _485
REMARK  200  A    between atoms: _490  and  _492
REMARK  201  A    between atoms: _492  and  _493
REMARK  202  A    between atoms: _492  and  _495
REMARK  203  A    between atoms: _495  and  _496
REMARK  204  A    between atoms: _499  and  _500
REMARK  205  A    between atoms: _505  and  _507
REMARK  206  A    between atoms: _507  and  _508
REMARK  207  A    between atoms: _507  and  _510
REMARK  208  A    between atoms: _513  and  _515
REMARK  209  A    between atoms: _515  and  _516
REMARK  210  A    between atoms: _515  and  _518
REMARK  211  A    between atoms: _518  and  _519
REMARK  212  A    between atoms: _524  and  _526
REMARK  213  A    between atoms: _526  and  _527
REMARK  214  A    between atoms: _526  and  _529
REMARK  215  A    between atoms: _529  and  _530
REMARK  216  A    between atoms: _533  and  _535
REMARK  217  A    between atoms: _535  and  _536
REMARK  218  A    between atoms: _535  and  _538
REMARK  219  A    between atoms: _538  and  _539
REMARK  220  A    between atoms: _542  and  _544
REMARK  221  A    between atoms: _544  and  _545
REMARK  222  A    between atoms: _547  and  _549
REMARK  223  A    between atoms: _549  and  _550
REMARK  224  A    between atoms: _549  and  _552
REMARK  225  A    between atoms: _552  and  _553
REMARK  226  A    between atoms: _553  and  _554
REMARK  227  A    between atoms: _554  and  _555
REMARK  228  A    between atoms: _564  and  _566
REMARK  229  A    between atoms: _566  and  _567
REMARK  230  A    between atoms: _566  and  _569
REMARK  231  A    between atoms: _569  and  _570
REMARK                            x       y       z     vdW  Elec       q    Type
REMARK                         _______ _______ _______ _____ _____    ______ ____
ROOT
ATOM      1  O   HOH     1      17.574   8.462  24.745  0.00  0.00    +0.000 OA
ENDROOT
TORSDOF 0
REMARK  Name = ../refined-set-2016/2fgu/2fgu_pocket.pdb
REMARK  231 active torsions:
REMARK  status: ('A' for Active; 'I' for Inactive)
REMARK    1  A    between atoms: _1  and  _3
REMARK    2  A    between atoms: _3  and  _4
REMARK    3  A    between atoms: _3  and  _6
REMARK    4  A    between atoms: _6  and  _7
REMARK    5  A    between atoms: _7  and  _8
REMARK    6  A    between atoms: _8  and  _9
REMARK    7  A    between atoms: _18  and  _20
REMARK    8  A    between atoms: _20  and  _21
REMARK    9  A    between atoms: _20  and  _23
REMARK   10  A    between atoms: _23  and  _24
REMARK   11  A    between atoms: _27  and  _29
REMARK   12  A    between atoms: _29  and  _30
REMARK   13  A    between atoms: _29  and  _32
REMARK   14  A    between atoms: _32  and  _33
REMARK   15  A    between atoms: _36  and  _38
REMARK   16  A    between atoms: _38  and  _39
REMARK   17  A    between atoms: _38  and  _41
REMARK   18  A    between atoms: _41  and  _42
REMARK   19  A    between atoms: _45  and  _47
REMARK   20  A    between atoms: _47  and  _48
REMARK   21  A    between atoms: _47  and  _50
REMARK   22  A    between atoms: _50  and  _51
REMARK   23  A    between atoms: _54  and  _56
REMARK   24  A    between atoms: _56  and  _57
REMARK   25  A    between atoms: _59  and  _61
REMARK   26  A    between atoms: _61  and  _62
REMARK   27  A    between atoms: _65  and  _67
REMARK   28  A    between atoms: _67  and  _68
REMARK   29  A    between atoms: _67  and  _70
REMARK   30  A    between atoms: _70  and  _71
REMARK   31  A    between atoms: _74  and  _76
REMARK   32  A    between atoms: _76  and  _77
REMARK   33  A    between atoms: _76  and  _79
REMARK   34  A    between atoms: _79  and  _80
REMARK   35  A    between atoms: _83  and  _85
REMARK   36  A    between atoms: _85  and  _86
REMARK   37  A    between atoms: _85  and  _88
REMARK   38  A    between atoms: _88  and  _89
REMARK   39  A    between atoms: _92  and  _94
REMARK   40  A    between atoms: _94  and  _95
REMARK   41  A    between atoms: _94  and  _97
REMARK   42  A    between atoms: _100  and  _102
REMARK   43  A    between atoms: _102  and  _103
REMARK   44  A    between atoms: _102  and  _105
REMARK   45  A    between atoms: _105  and  _106
REMARK   46  A    between atoms: _106  and  _107
REMARK   47  A    between atoms: _107  and  _108
REMARK   48  A    between atoms: _108  and  _109
REMARK   49  A    between atoms: _113  and  _115
REMARK   50  A    between atoms: _115  and  _116
REMARK   51  A    between atoms: _115  and  _118
REMARK   52  A    between atoms: _118  and  _119
REMARK   53  A    between atoms: _119  and  _120
REMARK   54  A    between atoms: _122  and  _124
REMARK   55  A    between atoms: _124  and  _125
REMARK   56  A    between atoms: _124  and  _127
REMARK   57  A    between atoms: _127  and  _128
REMARK   58  A    between atoms: _131  and  _133
REMARK   59  A    between atoms: _133  and  _134
REMARK   60  A    between atoms: _136  and  _138
REMARK   61  A    between atoms: _138  and  _139
REMARK   62  A    between atoms: _141  and  _143
REMARK   63  A    between atoms: _143  and  _144
REMARK   64  A    between atoms: _143  and  _146
REMARK   65  A    between atoms: _146  and  _147
REMARK   66  A    between atoms: _150  and  _152
REMARK   67  A    between atoms: _152  and  _153
REMARK   68  A    between atoms: _155  and  _157
REMARK   69  A    between atoms: _157  and  _158
REMARK   70  A    between atoms: _160  and  _162
REMARK   71  A    between atoms: _162  and  _163
REMARK   72  A    between atoms: _162  and  _165
REMARK   73  A    between atoms: _165  and  _166
REMARK   74  A    between atoms: _172  and  _174
REMARK   75  A    between atoms: _174  and  _175
REMARK   76  A    between atoms: _174  and  _177
REMARK   77  A    between atoms: _177  and  _178
REMARK   78  A    between atoms: _181  and  _183
REMARK   79  A    between atoms: _183  and  _184
REMARK   80  A    between atoms: _183  and  _186
REMARK   81  A    between atoms: _189  and  _191
REMARK   82  A    between atoms: _191  and  _192
REMARK   83  A    between atoms: _191  and  _194
REMARK   84  A    between atoms: _194  and  _195
REMARK   85  A    between atoms: _199  and  _200
REMARK   86  A    between atoms: _205  and  _207
REMARK   87  A    between atoms: _207  and  _208
REMARK   88  A    between atoms: _207  and  _210
REMARK   89  A    between atoms: _210  and  _211
REMARK   90  A    between atoms: _214  and  _215
REMARK   91  A    between atoms: _220  and  _222
REMARK   92  A    between atoms: _222  and  _223
REMARK   93  A    between atoms: _222  and  _225
REMARK   94  A    between atoms: _228  and  _230
REMARK   95  A    between atoms: _230  and  _231
REMARK   96  A    between atoms: _230  and  _233
REMARK   97  A    between atoms: _233  and  _234
REMARK   98  A    between atoms: _239  and  _241
REMARK   99  A    between atoms: _241  and  _242
REMARK  100  A    between atoms: _241  and  _244
REMARK  101  A    between atoms: _244  and  _245
REMARK  102  A    between atoms: _248  and  _250
REMARK  103  A    between atoms: _250  and  _251
REMARK  104  A    between atoms: _250  and  _253
REMARK  105  A    between atoms: _253  and  _254
REMARK  106  A    between atoms: _257  and  _259
REMARK  107  A    between atoms: _259  and  _260
REMARK  108  A    between atoms: _262  and  _264
REMARK  109  A    between atoms: _264  and  _265
REMARK  110  A    between atoms: _264  and  _267
REMARK  111  A    between atoms: _267  and  _268
REMARK  112  A    between atoms: _268  and  _269
REMARK  113  A    between atoms: _269  and  _270
REMARK  114  A    between atoms: _279  and  _281
REMARK  115  A    between atoms: _281  and  _282
REMARK  116  A    between atoms: _281  and  _284
REMARK  117  A    between atoms: _284  and  _285
REMARK  118  A    between atoms: _290  and  _292
REMARK  119  A    between atoms: _292  and  _293
REMARK  120  A    between atoms: _292  and  _295
REMARK  121  A    between atoms: _295  and  _296
REMARK  122  A    between atoms: _296  and  _297
REMARK  123  A    between atoms: _297  and  _298
REMARK  124  A    between atoms: _307  and  _309
REMARK  125  A    between atoms: _309  and  _310
REMARK  126  A    between atoms: _309  and  _312
REMARK  127  A    between atoms: _312  and  _313
REMARK  128  A    between atoms: _316  and  _318
REMARK  129  A    between atoms: _318  and  _319
REMARK  130  A    between atoms: _318  and  _321
REMARK  131  A    between atoms: _321  and  _322
REMARK  132  A    between atoms: _325  and  _327
REMARK  133  A    between atoms: _327  and  _328
REMARK  134  A    between atoms: _327  and  _330
REMARK  135  A    between atoms: _330  and  _331
REMARK  136  A    between atoms: _334  and  _336
REMARK  137  A    between atoms: _336  and  _337
REMARK  138  A    between atoms: _336  and  _339
REMARK  139  A    between atoms: _339  and  _340
REMARK  140  A    between atoms: _343  and  _345
REMARK  141  A    between atoms: _345  and  _346
REMARK  142  A    between atoms: _348  and  _350
REMARK  143  A    between atoms: _350  and  _351
REMARK  144  A    between atoms: _354  and  _356
REMARK  145  A    between atoms: _356  and  _357
REMARK  146  A    between atoms: _356  and  _359
REMARK  147  A    between atoms: _359  and  _360
REMARK  148  A    between atoms: _363  and  _365
REMARK  149  A    between atoms: _365  and  _366
REMARK  150  A    between atoms: _365  and  _368
REMARK  151  A    between atoms: _368  and  _369
REMARK  152  A    between atoms: _372  and  _374
REMARK  153  A    between atoms: _374  and  _375
REMARK  154  A    between atoms: _374  and  _377
REMARK  155  A    between atoms: _377  and  _378
REMARK  156  A    between atoms: _381  and  _383
REMARK  157  A    between atoms: _383  and  _384
REMARK  158  A    between atoms: _383  and  _386
REMARK  159  A    between atoms: _389  and  _391
REMARK  160  A    between atoms: _391  and  _392
REMARK  161  A    between atoms: _391  and  _394
REMARK  162  A    between atoms: _394  and  _395
REMARK  163  A    between atoms: _398  and  _400
REMARK  164  A    between atoms: _400  and  _401
REMARK  165  A    between atoms: _400  and  _403
REMARK  166  A    between atoms: _403  and  _404
REMARK  167  A    between atoms: _404  and  _405
REMARK  168  A    between atoms: _407  and  _409
REMARK  169  A    between atoms: _409  and  _410
REMARK  170  A    between atoms: _409  and  _412
REMARK  171  A    between atoms: _412  and  _413
REMARK  172  A    between atoms: _416  and  _418
REMARK  173  A    between atoms: _418  and  _419
REMARK  174  A    between atoms: _421  and  _423
REMARK  175  A    between atoms: _423  and  _424
REMARK  176  A    between atoms: _426  and  _428
REMARK  177  A    between atoms: _428  and  _429
REMARK  178  A    between atoms: _428  and  _431
REMARK  179  A    between atoms: _431  and  _432
REMARK  180  A    between atoms: _435  and  _437
REMARK  181  A    between atoms: _437  and  _438
REMARK  182  A    between atoms: _440  and  _442
REMARK  183  A    between atoms: _442  and  _443
REMARK  184  A    between atoms: _445  and  _447
REMARK  185  A    between atoms: _447  and  _448
REMARK  186  A    between atoms: _447  and  _450
REMARK  187  A    between atoms: _450  and  _451
REMARK  188  A    between atoms: _457  and  _459
REMARK  189  A    between atoms: _459  and  _460
REMARK  190  A    between atoms: _459  and  _462
REMARK  191  A    between atoms: _462  and  _463
REMARK  192  A    between atoms: _466  and  _468
REMARK  193  A    between atoms: _468  and  _469
REMARK  194  A    between atoms: _468  and  _471
REMARK  195  A    between atoms: _474  and  _476
REMARK  196  A    between atoms: _476  and  _477
REMARK  197  A    between atoms: _476  and  _479
REMARK  198  A    between atoms: _479  and  _480
REMARK  199  A    between atoms: _484  and  _485
REMARK  200  A    between atoms: _490  and  _492
REMARK  201  A    between atoms: _492  and  _493
REMARK  202  A    between atoms: _492  and  _495
REMARK  203  A    between atoms: _495  and  _496
REMARK  204  A    between atoms: _499  and  _500
REMARK  205  A    between atoms: _505  and  _507
REMARK  206  A    between atoms: _507  and  _508
REMARK  207  A    between atoms: _507  and  _510
REMARK  208  A    between atoms: _513  and  _515
REMARK  209  A    between atoms: _515  and  _516
REMARK  210  A    between atoms: _515  and  _518
REMARK  211  A    between atoms: _518  and  _519
REMARK  212  A    between atoms: _524  and  _526
REMARK  213  A    between atoms: _526  and  _527
REMARK  214  A    between atoms: _526  and  _529
REMARK  215  A    between atoms: _529  and  _530
REMARK  216  A    between atoms: _533  and  _535
REMARK  217  A    between atoms: _535  and  _536
REMARK  218  A    between atoms: _535  and  _538
REMARK  219  A    between atoms: _538  and  _539
REMARK  220  A    between atoms: _542  and  _544
REMARK  221  A    between atoms: _544  and  _545
REMARK  222  A    between atoms: _547  and  _549
REMARK  223  A    between atoms: _549  and  _550
REMARK  224  A    between atoms: _549  and  _552
REMARK  225  A    between atoms: _552  and  _553
REMARK  226  A    between atoms: _553  and  _554
REMARK  227  A    between atoms: _554  and  _555
REMARK  228  A    between atoms: _564  and  _566
REMARK  229  A    between atoms: _566  and  _567
REMARK  230  A    between atoms: _566  and  _569
REMARK  231  A    between atoms: _569  and  _570
REMARK                            x       y       z     vdW  Elec       q    Type
REMARK                         _______ _______ _______ _____ _____    ______ ____
ROOT
ATOM      1  O   HOH     1      20.124   7.472  14.868  0.00  0.00    +0.000 OA
ENDROOT
TORSDOF 0
REMARK  Name = ../refined-set-2016/2fgu/2fgu_pocket.pdb
REMARK  231 active torsions:
REMARK  status: ('A' for Active; 'I' for Inactive)
REMARK    1  A    between atoms: _1  and  _3
REMARK    2  A    between atoms: _3  and  _4
REMARK    3  A    between atoms: _3  and  _6
REMARK    4  A    between atoms: _6  and  _7
REMARK    5  A    between atoms: _7  and  _8
REMARK    6  A    between atoms: _8  and  _9
REMARK    7  A    between atoms: _18  and  _20
REMARK    8  A    between atoms: _20  and  _21
REMARK    9  A    between atoms: _20  and  _23
REMARK   10  A    between atoms: _23  and  _24
REMARK   11  A    between atoms: _27  and  _29
REMARK   12  A    between atoms: _29  and  _30
REMARK   13  A    between atoms: _29  and  _32
REMARK   14  A    between atoms: _32  and  _33
REMARK   15  A    between atoms: _36  and  _38
REMARK   16  A    between atoms: _38  and  _39
REMARK   17  A    between atoms: _38  and  _41
REMARK   18  A    between atoms: _41  and  _42
REMARK   19  A    between atoms: _45  and  _47
REMARK   20  A    between atoms: _47  and  _48
REMARK   21  A    between atoms: _47  and  _50
REMARK   22  A    between atoms: _50  and  _51
REMARK   23  A    between atoms: _54  and  _56
REMARK   24  A    between atoms: _56  and  _57
REMARK   25  A    between atoms: _59  and  _61
REMARK   26  A    between atoms: _61  and  _62
REMARK   27  A    between atoms: _65  and  _67
REMARK   28  A    between atoms: _67  and  _68
REMARK   29  A    between atoms: _67  and  _70
REMARK   30  A    between atoms: _70  and  _71
REMARK   31  A    between atoms: _74  and  _76
REMARK   32  A    between atoms: _76  and  _77
REMARK   33  A    between atoms: _76  and  _79
REMARK   34  A    between atoms: _79  and  _80
REMARK   35  A    between atoms: _83  and  _85
REMARK   36  A    between atoms: _85  and  _86
REMARK   37  A    between atoms: _85  and  _88
REMARK   38  A    between atoms: _88  and  _89
REMARK   39  A    between atoms: _92  and  _94
REMARK   40  A    between atoms: _94  and  _95
REMARK   41  A    between atoms: _94  and  _97
REMARK   42  A    between atoms: _100  and  _102
REMARK   43  A    between atoms: _102  and  _103
REMARK   44  A    between atoms: _102  and  _105
REMARK   45  A    between atoms: _105  and  _106
REMARK   46  A    between atoms: _106  and  _107
REMARK   47  A    between atoms: _107  and  _108
REMARK   48  A    between atoms: _108  and  _109
REMARK   49  A    between atoms: _113  and  _115
REMARK   50  A    between atoms: _115  and  _116
REMARK   51  A    between atoms: _115  and  _118
REMARK   52  A    between atoms: _118  and  _119
REMARK   53  A    between atoms: _119  and  _120
REMARK   54  A    between atoms: _122  and  _124
REMARK   55  A    between atoms: _124  and  _125
REMARK   56  A    between atoms: _124  and  _127
REMARK   57  A    between atoms: _127  and  _128
REMARK   58  A    between atoms: _131  and  _133
REMARK   59  A    between atoms: _133  and  _134
REMARK   60  A    between atoms: _136  and  _138
REMARK   61  A    between atoms: _138  and  _139
REMARK   62  A    between atoms: _141  and  _143
REMARK   63  A    between atoms: _143  and  _144
REMARK   64  A    between atoms: _143  and  _146
REMARK   65  A    between atoms: _146  and  _147
REMARK   66  A    between atoms: _150  and  _152
REMARK   67  A    between atoms: _152  and  _153
REMARK   68  A    between atoms: _155  and  _157
REMARK   69  A    between atoms: _157  and  _158
REMARK   70  A    between atoms: _160  and  _162
REMARK   71  A    between atoms: _162  and  _163
REMARK   72  A    between atoms: _162  and  _165
REMARK   73  A    between atoms: _165  and  _166
REMARK   74  A    between atoms: _172  and  _174
REMARK   75  A    between atoms: _174  and  _175
REMARK   76  A    between atoms: _174  and  _177
REMARK   77  A    between atoms: _177  and  _178
REMARK   78  A    between atoms: _181  and  _183
REMARK   79  A    between atoms: _183  and  _184
REMARK   80  A    between atoms: _183  and  _186
REMARK   81  A    between atoms: _189  and  _191
REMARK   82  A    between atoms: _191  and  _192
REMARK   83  A    between atoms: _191  and  _194
REMARK   84  A    between atoms: _194  and  _195
REMARK   85  A    between atoms: _199  and  _200
REMARK   86  A    between atoms: _205  and  _207
REMARK   87  A    between atoms: _207  and  _208
REMARK   88  A    between atoms: _207  and  _210
REMARK   89  A    between atoms: _210  and  _211
REMARK   90  A    between atoms: _214  and  _215
REMARK   91  A    between atoms: _220  and  _222
REMARK   92  A    between atoms: _222  and  _223
REMARK   93  A    between atoms: _222  and  _225
REMARK   94  A    between atoms: _228  and  _230
REMARK   95  A    between atoms: _230  and  _231
REMARK   96  A    between atoms: _230  and  _233
REMARK   97  A    between atoms: _233  and  _234
REMARK   98  A    between atoms: _239  and  _241
REMARK   99  A    between atoms: _241  and  _242
REMARK  100  A    between atoms: _241  and  _244
REMARK  101  A    between atoms: _244  and  _245
REMARK  102  A    between atoms: _248  and  _250
REMARK  103  A    between atoms: _250  and  _251
REMARK  104  A    between atoms: _250  and  _253
REMARK  105  A    between atoms: _253  and  _254
REMARK  106  A    between atoms: _257  and  _259
REMARK  107  A    between atoms: _259  and  _260
REMARK  108  A    between atoms: _262  and  _264
REMARK  109  A    between atoms: _264  and  _265
REMARK  110  A    between atoms: _264  and  _267
REMARK  111  A    between atoms: _267  and  _268
REMARK  112  A    between atoms: _268  and  _269
REMARK  113  A    between atoms: _269  and  _270
REMARK  114  A    between atoms: _279  and  _281
REMARK  115  A    between atoms: _281  and  _282
REMARK  116  A    between atoms: _281  and  _284
REMARK  117  A    between atoms: _284  and  _285
REMARK  118  A    between atoms: _290  and  _292
REMARK  119  A    between atoms: _292  and  _293
REMARK  120  A    between atoms: _292  and  _295
REMARK  121  A    between atoms: _295  and  _296
REMARK  122  A    between atoms: _296  and  _297
REMARK  123  A    between atoms: _297  and  _298
REMARK  124  A    between atoms: _307  and  _309
REMARK  125  A    between atoms: _309  and  _310
REMARK  126  A    between atoms: _309  and  _312
REMARK  127  A    between atoms: _312  and  _313
REMARK  128  A    between atoms: _316  and  _318
REMARK  129  A    between atoms: _318  and  _319
REMARK  130  A    between atoms: _318  and  _321
REMARK  131  A    between atoms: _321  and  _322
REMARK  132  A    between atoms: _325  and  _327
REMARK  133  A    between atoms: _327  and  _328
REMARK  134  A    between atoms: _327  and  _330
REMARK  135  A    between atoms: _330  and  _331
REMARK  136  A    between atoms: _334  and  _336
REMARK  137  A    between atoms: _336  and  _337
REMARK  138  A    between atoms: _336  and  _339
REMARK  139  A    between atoms: _339  and  _340
REMARK  140  A    between atoms: _343  and  _345
REMARK  141  A    between atoms: _345  and  _346
REMARK  142  A    between atoms: _348  and  _350
REMARK  143  A    between atoms: _350  and  _351
REMARK  144  A    between atoms: _354  and  _356
REMARK  145  A    between atoms: _356  and  _357
REMARK  146  A    between atoms: _356  and  _359
REMARK  147  A    between atoms: _359  and  _360
REMARK  148  A    between atoms: _363  and  _365
REMARK  149  A    between atoms: _365  and  _366
REMARK  150  A    between atoms: _365  and  _368
REMARK  151  A    between atoms: _368  and  _369
REMARK  152  A    between atoms: _372  and  _374
REMARK  153  A    between atoms: _374  and  _375
REMARK  154  A    between atoms: _374  and  _377
REMARK  155  A    between atoms: _377  and  _378
REMARK  156  A    between atoms: _381  and  _383
REMARK  157  A    between atoms: _383  and  _384
REMARK  158  A    between atoms: _383  and  _386
REMARK  159  A    between atoms: _389  and  _391
REMARK  160  A    between atoms: _391  and  _392
REMARK  161  A    between atoms: _391  and  _394
REMARK  162  A    between atoms: _394  and  _395
REMARK  163  A    between atoms: _398  and  _400
REMARK  164  A    between atoms: _400  and  _401
REMARK  165  A    between atoms: _400  and  _403
REMARK  166  A    between atoms: _403  and  _404
REMARK  167  A    between atoms: _404  and  _405
REMARK  168  A    between atoms: _407  and  _409
REMARK  169  A    between atoms: _409  and  _410
REMARK  170  A    between atoms: _409  and  _412
REMARK  171  A    between atoms: _412  and  _413
REMARK  172  A    between atoms: _416  and  _418
REMARK  173  A    between atoms: _418  and  _419
REMARK  174  A    between atoms: _421  and  _423
REMARK  175  A    between atoms: _423  and  _424
REMARK  176  A    between atoms: _426  and  _428
REMARK  177  A    between atoms: _428  and  _429
REMARK  178  A    between atoms: _428  and  _431
REMARK  179  A    between atoms: _431  and  _432
REMARK  180  A    between atoms: _435  and  _437
REMARK  181  A    between atoms: _437  and  _438
REMARK  182  A    between atoms: _440  and  _442
REMARK  183  A    between atoms: _442  and  _443
REMARK  184  A    between atoms: _445  and  _447
REMARK  185  A    between atoms: _447  and  _448
REMARK  186  A    between atoms: _447  and  _450
REMARK  187  A    between atoms: _450  and  _451
REMARK  188  A    between atoms: _457  and  _459
REMARK  189  A    between atoms: _459  and  _460
REMARK  190  A    between atoms: _459  and  _462
REMARK  191  A    between atoms: _462  and  _463
REMARK  192  A    between atoms: _466  and  _468
REMARK  193  A    between atoms: _468  and  _469
REMARK  194  A    between atoms: _468  and  _471
REMARK  195  A    between atoms: _474  and  _476
REMARK  196  A    between atoms: _476  and  _477
REMARK  197  A    between atoms: _476  and  _479
REMARK  198  A    between atoms: _479  and  _480
REMARK  199  A    between atoms: _484  and  _485
REMARK  200  A    between atoms: _490  and  _492
REMARK  201  A    between atoms: _492  and  _493
REMARK  202  A    between atoms: _492  and  _495
REMARK  203  A    between atoms: _495  and  _496
REMARK  204  A    between atoms: _499  and  _500
REMARK  205  A    between atoms: _505  and  _507
REMARK  206  A    between atoms: _507  and  _508
REMARK  207  A    between atoms: _507  and  _510
REMARK  208  A    between atoms: _513  and  _515
REMARK  209  A    between atoms: _515  and  _516
REMARK  210  A    between atoms: _515  and  _518
REMARK  211  A    between atoms: _518  and  _519
REMARK  212  A    between atoms: _524  and  _526
REMARK  213  A    between atoms: _526  and  _527
REMARK  214  A    between atoms: _526  and  _529
REMARK  215  A    between atoms: _529  and  _530
REMARK  216  A    between atoms: _533  and  _535
REMARK  217  A    between atoms: _535  and  _536
REMARK  218  A    between atoms: _535  and  _538
REMARK  219  A    between atoms: _538  and  _539
REMARK  220  A    between atoms: _542  and  _544
REMARK  221  A    between atoms: _544  and  _545
REMARK  222  A    between atoms: _547  and  _549
REMARK  223  A    between atoms: _549  and  _550
REMARK  224  A    between atoms: _549  and  _552
REMARK  225  A    between atoms: _552  and  _553
REMARK  226  A    between atoms: _553  and  _554
REMARK  227  A    between atoms: _554  and  _555
REMARK  228  A    between atoms: _564  and  _566
REMARK  229  A    between atoms: _566  and  _567
REMARK  230  A    between atoms: _566  and  _569
REMARK  231  A    between atoms: _569  and  _570
REMARK                            x       y       z     vdW  Elec       q    Type
REMARK                         _______ _______ _______ _____ _____    ______ ____
ROOT
ATOM      1  O   HOH     1      25.220  -7.669  22.106  0.00  0.00    +0.000 OA
ENDROOT
TORSDOF 0
REMARK  Name = ../refined-set-2016/2fgu/2fgu_pocket.pdb
REMARK  231 active torsions:
REMARK  status: ('A' for Active; 'I' for Inactive)
REMARK    1  A    between atoms: _1  and  _3
REMARK    2  A    between atoms: _3  and  _4
REMARK    3  A    between atoms: _3  and  _6
REMARK    4  A    between atoms: _6  and  _7
REMARK    5  A    between atoms: _7  and  _8
REMARK    6  A    between atoms: _8  and  _9
REMARK    7  A    between atoms: _18  and  _20
REMARK    8  A    between atoms: _20  and  _21
REMARK    9  A    between atoms: _20  and  _23
REMARK   10  A    between atoms: _23  and  _24
REMARK   11  A    between atoms: _27  and  _29
REMARK   12  A    between atoms: _29  and  _30
REMARK   13  A    between atoms: _29  and  _32
REMARK   14  A    between atoms: _32  and  _33
REMARK   15  A    between atoms: _36  and  _38
REMARK   16  A    between atoms: _38  and  _39
REMARK   17  A    between atoms: _38  and  _41
REMARK   18  A    between atoms: _41  and  _42
REMARK   19  A    between atoms: _45  and  _47
REMARK   20  A    between atoms: _47  and  _48
REMARK   21  A    between atoms: _47  and  _50
REMARK   22  A    between atoms: _50  and  _51
REMARK   23  A    between atoms: _54  and  _56
REMARK   24  A    between atoms: _56  and  _57
REMARK   25  A    between atoms: _59  and  _61
REMARK   26  A    between atoms: _61  and  _62
REMARK   27  A    between atoms: _65  and  _67
REMARK   28  A    between atoms: _67  and  _68
REMARK   29  A    between atoms: _67  and  _70
REMARK   30  A    between atoms: _70  and  _71
REMARK   31  A    between atoms: _74  and  _76
REMARK   32  A    between atoms: _76  and  _77
REMARK   33  A    between atoms: _76  and  _79
REMARK   34  A    between atoms: _79  and  _80
REMARK   35  A    between atoms: _83  and  _85
REMARK   36  A    between atoms: _85  and  _86
REMARK   37  A    between atoms: _85  and  _88
REMARK   38  A    between atoms: _88  and  _89
REMARK   39  A    between atoms: _92  and  _94
REMARK   40  A    between atoms: _94  and  _95
REMARK   41  A    between atoms: _94  and  _97
REMARK   42  A    between atoms: _100  and  _102
REMARK   43  A    between atoms: _102  and  _103
REMARK   44  A    between atoms: _102  and  _105
REMARK   45  A    between atoms: _105  and  _106
REMARK   46  A    between atoms: _106  and  _107
REMARK   47  A    between atoms: _107  and  _108
REMARK   48  A    between atoms: _108  and  _109
REMARK   49  A    between atoms: _113  and  _115
REMARK   50  A    between atoms: _115  and  _116
REMARK   51  A    between atoms: _115  and  _118
REMARK   52  A    between atoms: _118  and  _119
REMARK   53  A    between atoms: _119  and  _120
REMARK   54  A    between atoms: _122  and  _124
REMARK   55  A    between atoms: _124  and  _125
REMARK   56  A    between atoms: _124  and  _127
REMARK   57  A    between atoms: _127  and  _128
REMARK   58  A    between atoms: _131  and  _133
REMARK   59  A    between atoms: _133  and  _134
REMARK   60  A    between atoms: _136  and  _138
REMARK   61  A    between atoms: _138  and  _139
REMARK   62  A    between atoms: _141  and  _143
REMARK   63  A    between atoms: _143  and  _144
REMARK   64  A    between atoms: _143  and  _146
REMARK   65  A    between atoms: _146  and  _147
REMARK   66  A    between atoms: _150  and  _152
REMARK   67  A    between atoms: _152  and  _153
REMARK   68  A    between atoms: _155  and  _157
REMARK   69  A    between atoms: _157  and  _158
REMARK   70  A    between atoms: _160  and  _162
REMARK   71  A    between atoms: _162  and  _163
REMARK   72  A    between atoms: _162  and  _165
REMARK   73  A    between atoms: _165  and  _166
REMARK   74  A    between atoms: _172  and  _174
REMARK   75  A    between atoms: _174  and  _175
REMARK   76  A    between atoms: _174  and  _177
REMARK   77  A    between atoms: _177  and  _178
REMARK   78  A    between atoms: _181  and  _183
REMARK   79  A    between atoms: _183  and  _184
REMARK   80  A    between atoms: _183  and  _186
REMARK   81  A    between atoms: _189  and  _191
REMARK   82  A    between atoms: _191  and  _192
REMARK   83  A    between atoms: _191  and  _194
REMARK   84  A    between atoms: _194  and  _195
REMARK   85  A    between atoms: _199  and  _200
REMARK   86  A    between atoms: _205  and  _207
REMARK   87  A    between atoms: _207  and  _208
REMARK   88  A    between atoms: _207  and  _210
REMARK   89  A    between atoms: _210  and  _211
REMARK   90  A    between atoms: _214  and  _215
REMARK   91  A    between atoms: _220  and  _222
REMARK   92  A    between atoms: _222  and  _223
REMARK   93  A    between atoms: _222  and  _225
REMARK   94  A    between atoms: _228  and  _230
REMARK   95  A    between atoms: _230  and  _231
REMARK   96  A    between atoms: _230  and  _233
REMARK   97  A    between atoms: _233  and  _234
REMARK   98  A    between atoms: _239  and  _241
REMARK   99  A    between atoms: _241  and  _242
REMARK  100  A    between atoms: _241  and  _244
REMARK  101  A    between atoms: _244  and  _245
REMARK  102  A    between atoms: _248  and  _250
REMARK  103  A    between atoms: _250  and  _251
REMARK  104  A    between atoms: _250  and  _253
REMARK  105  A    between atoms: _253  and  _254
REMARK  106  A    between atoms: _257  and  _259
REMARK  107  A    between atoms: _259  and  _260
REMARK  108  A    between atoms: _262  and  _264
REMARK  109  A    between atoms: _264  and  _265
REMARK  110  A    between atoms: _264  and  _267
REMARK  111  A    between atoms: _267  and  _268
REMARK  112  A    between atoms: _268  and  _269
REMARK  113  A    between atoms: _269  and  _270
REMARK  114  A    between atoms: _279  and  _281
REMARK  115  A    between atoms: _281  and  _282
REMARK  116  A    between atoms: _281  and  _284
REMARK  117  A    between atoms: _284  and  _285
REMARK  118  A    between atoms: _290  and  _292
REMARK  119  A    between atoms: _292  and  _293
REMARK  120  A    between atoms: _292  and  _295
REMARK  121  A    between atoms: _295  and  _296
REMARK  122  A    between atoms: _296  and  _297
REMARK  123  A    between atoms: _297  and  _298
REMARK  124  A    between atoms: _307  and  _309
REMARK  125  A    between atoms: _309  and  _310
REMARK  126  A    between atoms: _309  and  _312
REMARK  127  A    between atoms: _312  and  _313
REMARK  128  A    between atoms: _316  and  _318
REMARK  129  A    between atoms: _318  and  _319
REMARK  130  A    between atoms: _318  and  _321
REMARK  131  A    between atoms: _321  and  _322
REMARK  132  A    between atoms: _325  and  _327
REMARK  133  A    between atoms: _327  and  _328
REMARK  134  A    between atoms: _327  and  _330
REMARK  135  A    between atoms: _330  and  _331
REMARK  136  A    between atoms: _334  and  _336
REMARK  137  A    between atoms: _336  and  _337
REMARK  138  A    between atoms: _336  and  _339
REMARK  139  A    between atoms: _339  and  _340
REMARK  140  A    between atoms: _343  and  _345
REMARK  141  A    between atoms: _345  and  _346
REMARK  142  A    between atoms: _348  and  _350
REMARK  143  A    between atoms: _350  and  _351
REMARK  144  A    between atoms: _354  and  _356
REMARK  145  A    between atoms: _356  and  _357
REMARK  146  A    between atoms: _356  and  _359
REMARK  147  A    between atoms: _359  and  _360
REMARK  148  A    between atoms: _363  and  _365
REMARK  149  A    between atoms: _365  and  _366
REMARK  150  A    between atoms: _365  and  _368
REMARK  151  A    between atoms: _368  and  _369
REMARK  152  A    between atoms: _372  and  _374
REMARK  153  A    between atoms: _374  and  _375
REMARK  154  A    between atoms: _374  and  _377
REMARK  155  A    between atoms: _377  and  _378
REMARK  156  A    between atoms: _381  and  _383
REMARK  157  A    between atoms: _383  and  _384
REMARK  158  A    between atoms: _383  and  _386
REMARK  159  A    between atoms: _389  and  _391
REMARK  160  A    between atoms: _391  and  _392
REMARK  161  A    between atoms: _391  and  _394
REMARK  162  A    between atoms: _394  and  _395
REMARK  163  A    between atoms: _398  and  _400
REMARK  164  A    between atoms: _400  and  _401
REMARK  165  A    between atoms: _400  and  _403
REMARK  166  A    between atoms: _403  and  _404
REMARK  167  A    between atoms: _404  and  _405
REMARK  168  A    between atoms: _407  and  _409
REMARK  169  A    between atoms: _409  and  _410
REMARK  170  A    between atoms: _409  and  _412
REMARK  171  A    between atoms: _412  and  _413
REMARK  172  A    between atoms: _416  and  _418
REMARK  173  A    between atoms: _418  and  _419
REMARK  174  A    between atoms: _421  and  _423
REMARK  175  A    between atoms: _423  and  _424
REMARK  176  A    between atoms: _426  and  _428
REMARK  177  A    between atoms: _428  and  _429
REMARK  178  A    between atoms: _428  and  _431
REMARK  179  A    between atoms: _431  and  _432
REMARK  180  A    between atoms: _435  and  _437
REMARK  181  A    between atoms: _437  and  _438
REMARK  182  A    between atoms: _440  and  _442
REMARK  183  A    between atoms: _442  and  _443
REMARK  184  A    between atoms: _445  and  _447
REMARK  185  A    between atoms: _447  and  _448
REMARK  186  A    between atoms: _447  and  _450
REMARK  187  A    between atoms: _450  and  _451
REMARK  188  A    between atoms: _457  and  _459
REMARK  189  A    between atoms: _459  and  _460
REMARK  190  A    between atoms: _459  and  _462
REMARK  191  A    between atoms: _462  and  _463
REMARK  192  A    between atoms: _466  and  _468
REMARK  193  A    between atoms: _468  and  _469
REMARK  194  A    between atoms: _468  and  _471
REMARK  195  A    between atoms: _474  and  _476
REMARK  196  A    between atoms: _476  and  _477
REMARK  197  A    between atoms: _476  and  _479
REMARK  198  A    between atoms: _479  and  _480
REMARK  199  A    between atoms: _484  and  _485
REMARK  200  A    between atoms: _490  and  _492
REMARK  201  A    between atoms: _492  and  _493
REMARK  202  A    between atoms: _492  and  _495
REMARK  203  A    between atoms: _495  and  _496
REMARK  204  A    between atoms: _499  and  _500
REMARK  205  A    between atoms: _505  and  _507
REMARK  206  A    between atoms: _507  and  _508
REMARK  207  A    between atoms: _507  and  _510
REMARK  208  A    between atoms: _513  and  _515
REMARK  209  A    between atoms: _515  and  _516
REMARK  210  A    between atoms: _515  and  _518
REMARK  211  A    between atoms: _518  and  _519
REMARK  212  A    between atoms: _524  and  _526
REMARK  213  A    between atoms: _526  and  _527
REMARK  214  A    between atoms: _526  and  _529
REMARK  215  A    between atoms: _529  and  _530
REMARK  216  A    between atoms: _533  and  _535
REMARK  217  A    between atoms: _535  and  _536
REMARK  218  A    between atoms: _535  and  _538
REMARK  219  A    between atoms: _538  and  _539
REMARK  220  A    between atoms: _542  and  _544
REMARK  221  A    between atoms: _544  and  _545
REMARK  222  A    between atoms: _547  and  _549
REMARK  223  A    between atoms: _549  and  _550
REMARK  224  A    between atoms: _549  and  _552
REMARK  225  A    between atoms: _552  and  _553
REMARK  226  A    between atoms: _553  and  _554
REMARK  227  A    between atoms: _554  and  _555
REMARK  228  A    between atoms: _564  and  _566
REMARK  229  A    between atoms: _566  and  _567
REMARK  230  A    between atoms: _566  and  _569
REMARK  231  A    between atoms: _569  and  _570
REMARK                            x       y       z     vdW  Elec       q    Type
REMARK                         _______ _______ _______ _____ _____    ______ ____
ROOT
ATOM      1  O   HOH     1      19.426   5.752  17.666  0.00  0.00    +0.000 OA
ENDROOT
TORSDOF 0
REMARK  Name = ../refined-set-2016/2fgu/2fgu_pocket.pdb
REMARK  231 active torsions:
REMARK  status: ('A' for Active; 'I' for Inactive)
REMARK    1  A    between atoms: _1  and  _3
REMARK    2  A    between atoms: _3  and  _4
REMARK    3  A    between atoms: _3  and  _6
REMARK    4  A    between atoms: _6  and  _7
REMARK    5  A    between atoms: _7  and  _8
REMARK    6  A    between atoms: _8  and  _9
REMARK    7  A    between atoms: _18  and  _20
REMARK    8  A    between atoms: _20  and  _21
REMARK    9  A    between atoms: _20  and  _23
REMARK   10  A    between atoms: _23  and  _24
REMARK   11  A    between atoms: _27  and  _29
REMARK   12  A    between atoms: _29  and  _30
REMARK   13  A    between atoms: _29  and  _32
REMARK   14  A    between atoms: _32  and  _33
REMARK   15  A    between atoms: _36  and  _38
REMARK   16  A    between atoms: _38  and  _39
REMARK   17  A    between atoms: _38  and  _41
REMARK   18  A    between atoms: _41  and  _42
REMARK   19  A    between atoms: _45  and  _47
REMARK   20  A    between atoms: _47  and  _48
REMARK   21  A    between atoms: _47  and  _50
REMARK   22  A    between atoms: _50  and  _51
REMARK   23  A    between atoms: _54  and  _56
REMARK   24  A    between atoms: _56  and  _57
REMARK   25  A    between atoms: _59  and  _61
REMARK   26  A    between atoms: _61  and  _62
REMARK   27  A    between atoms: _65  and  _67
REMARK   28  A    between atoms: _67  and  _68
REMARK   29  A    between atoms: _67  and  _70
REMARK   30  A    between atoms: _70  and  _71
REMARK   31  A    between atoms: _74  and  _76
REMARK   32  A    between atoms: _76  and  _77
REMARK   33  A    between atoms: _76  and  _79
REMARK   34  A    between atoms: _79  and  _80
REMARK   35  A    between atoms: _83  and  _85
REMARK   36  A    between atoms: _85  and  _86
REMARK   37  A    between atoms: _85  and  _88
REMARK   38  A    between atoms: _88  and  _89
REMARK   39  A    between atoms: _92  and  _94
REMARK   40  A    between atoms: _94  and  _95
REMARK   41  A    between atoms: _94  and  _97
REMARK   42  A    between atoms: _100  and  _102
REMARK   43  A    between atoms: _102  and  _103
REMARK   44  A    between atoms: _102  and  _105
REMARK   45  A    between atoms: _105  and  _106
REMARK   46  A    between atoms: _106  and  _107
REMARK   47  A    between atoms: _107  and  _108
REMARK   48  A    between atoms: _108  and  _109
REMARK   49  A    between atoms: _113  and  _115
REMARK   50  A    between atoms: _115  and  _116
REMARK   51  A    between atoms: _115  and  _118
REMARK   52  A    between atoms: _118  and  _119
REMARK   53  A    between atoms: _119  and  _120
REMARK   54  A    between atoms: _122  and  _124
REMARK   55  A    between atoms: _124  and  _125
REMARK   56  A    between atoms: _124  and  _127
REMARK   57  A    between atoms: _127  and  _128
REMARK   58  A    between atoms: _131  and  _133
REMARK   59  A    between atoms: _133  and  _134
REMARK   60  A    between atoms: _136  and  _138
REMARK   61  A    between atoms: _138  and  _139
REMARK   62  A    between atoms: _141  and  _143
REMARK   63  A    between atoms: _143  and  _144
REMARK   64  A    between atoms: _143  and  _146
REMARK   65  A    between atoms: _146  and  _147
REMARK   66  A    between atoms: _150  and  _152
REMARK   67  A    between atoms: _152  and  _153
REMARK   68  A    between atoms: _155  and  _157
REMARK   69  A    between atoms: _157  and  _158
REMARK   70  A    between atoms: _160  and  _162
REMARK   71  A    between atoms: _162  and  _163
REMARK   72  A    between atoms: _162  and  _165
REMARK   73  A    between atoms: _165  and  _166
REMARK   74  A    between atoms: _172  and  _174
REMARK   75  A    between atoms: _174  and  _175
REMARK   76  A    between atoms: _174  and  _177
REMARK   77  A    between atoms: _177  and  _178
REMARK   78  A    between atoms: _181  and  _183
REMARK   79  A    between atoms: _183  and  _184
REMARK   80  A    between atoms: _183  and  _186
REMARK   81  A    between atoms: _189  and  _191
REMARK   82  A    between atoms: _191  and  _192
REMARK   83  A    between atoms: _191  and  _194
REMARK   84  A    between atoms: _194  and  _195
REMARK   85  A    between atoms: _199  and  _200
REMARK   86  A    between atoms: _205  and  _207
REMARK   87  A    between atoms: _207  and  _208
REMARK   88  A    between atoms: _207  and  _210
REMARK   89  A    between atoms: _210  and  _211
REMARK   90  A    between atoms: _214  and  _215
REMARK   91  A    between atoms: _220  and  _222
REMARK   92  A    between atoms: _222  and  _223
REMARK   93  A    between atoms: _222  and  _225
REMARK   94  A    between atoms: _228  and  _230
REMARK   95  A    between atoms: _230  and  _231
REMARK   96  A    between atoms: _230  and  _233
REMARK   97  A    between atoms: _233  and  _234
REMARK   98  A    between atoms: _239  and  _241
REMARK   99  A    between atoms: _241  and  _242
REMARK  100  A    between atoms: _241  and  _244
REMARK  101  A    between atoms: _244  and  _245
REMARK  102  A    between atoms: _248  and  _250
REMARK  103  A    between atoms: _250  and  _251
REMARK  104  A    between atoms: _250  and  _253
REMARK  105  A    between atoms: _253  and  _254
REMARK  106  A    between atoms: _257  and  _259
REMARK  107  A    between atoms: _259  and  _260
REMARK  108  A    between atoms: _262  and  _264
REMARK  109  A    between atoms: _264  and  _265
REMARK  110  A    between atoms: _264  and  _267
REMARK  111  A    between atoms: _267  and  _268
REMARK  112  A    between atoms: _268  and  _269
REMARK  113  A    between atoms: _269  and  _270
REMARK  114  A    between atoms: _279  and  _281
REMARK  115  A    between atoms: _281  and  _282
REMARK  116  A    between atoms: _281  and  _284
REMARK  117  A    between atoms: _284  and  _285
REMARK  118  A    between atoms: _290  and  _292
REMARK  119  A    between atoms: _292  and  _293
REMARK  120  A    between atoms: _292  and  _295
REMARK  121  A    between atoms: _295  and  _296
REMARK  122  A    between atoms: _296  and  _297
REMARK  123  A    between atoms: _297  and  _298
REMARK  124  A    between atoms: _307  and  _309
REMARK  125  A    between atoms: _309  and  _310
REMARK  126  A    between atoms: _309  and  _312
REMARK  127  A    between atoms: _312  and  _313
REMARK  128  A    between atoms: _316  and  _318
REMARK  129  A    between atoms: _318  and  _319
REMARK  130  A    between atoms: _318  and  _321
REMARK  131  A    between atoms: _321  and  _322
REMARK  132  A    between atoms: _325  and  _327
REMARK  133  A    between atoms: _327  and  _328
REMARK  134  A    between atoms: _327  and  _330
REMARK  135  A    between atoms: _330  and  _331
REMARK  136  A    between atoms: _334  and  _336
REMARK  137  A    between atoms: _336  and  _337
REMARK  138  A    between atoms: _336  and  _339
REMARK  139  A    between atoms: _339  and  _340
REMARK  140  A    between atoms: _343  and  _345
REMARK  141  A    between atoms: _345  and  _346
REMARK  142  A    between atoms: _348  and  _350
REMARK  143  A    between atoms: _350  and  _351
REMARK  144  A    between atoms: _354  and  _356
REMARK  145  A    between atoms: _356  and  _357
REMARK  146  A    between atoms: _356  and  _359
REMARK  147  A    between atoms: _359  and  _360
REMARK  148  A    between atoms: _363  and  _365
REMARK  149  A    between atoms: _365  and  _366
REMARK  150  A    between atoms: _365  and  _368
REMARK  151  A    between atoms: _368  and  _369
REMARK  152  A    between atoms: _372  and  _374
REMARK  153  A    between atoms: _374  and  _375
REMARK  154  A    between atoms: _374  and  _377
REMARK  155  A    between atoms: _377  and  _378
REMARK  156  A    between atoms: _381  and  _383
REMARK  157  A    between atoms: _383  and  _384
REMARK  158  A    between atoms: _383  and  _386
REMARK  159  A    between atoms: _389  and  _391
REMARK  160  A    between atoms: _391  and  _392
REMARK  161  A    between atoms: _391  and  _394
REMARK  162  A    between atoms: _394  and  _395
REMARK  163  A    between atoms: _398  and  _400
REMARK  164  A    between atoms: _400  and  _401
REMARK  165  A    between atoms: _400  and  _403
REMARK  166  A    between atoms: _403  and  _404
REMARK  167  A    between atoms: _404  and  _405
REMARK  168  A    between atoms: _407  and  _409
REMARK  169  A    between atoms: _409  and  _410
REMARK  170  A    between atoms: _409  and  _412
REMARK  171  A    between atoms: _412  and  _413
REMARK  172  A    between atoms: _416  and  _418
REMARK  173  A    between atoms: _418  and  _419
REMARK  174  A    between atoms: _421  and  _423
REMARK  175  A    between atoms: _423  and  _424
REMARK  176  A    between atoms: _426  and  _428
REMARK  177  A    between atoms: _428  and  _429
REMARK  178  A    between atoms: _428  and  _431
REMARK  179  A    between atoms: _431  and  _432
REMARK  180  A    between atoms: _435  and  _437
REMARK  181  A    between atoms: _437  and  _438
REMARK  182  A    between atoms: _440  and  _442
REMARK  183  A    between atoms: _442  and  _443
REMARK  184  A    between atoms: _445  and  _447
REMARK  185  A    between atoms: _447  and  _448
REMARK  186  A    between atoms: _447  and  _450
REMARK  187  A    between atoms: _450  and  _451
REMARK  188  A    between atoms: _457  and  _459
REMARK  189  A    between atoms: _459  and  _460
REMARK  190  A    between atoms: _459  and  _462
REMARK  191  A    between atoms: _462  and  _463
REMARK  192  A    between atoms: _466  and  _468
REMARK  193  A    between atoms: _468  and  _469
REMARK  194  A    between atoms: _468  and  _471
REMARK  195  A    between atoms: _474  and  _476
REMARK  196  A    between atoms: _476  and  _477
REMARK  197  A    between atoms: _476  and  _479
REMARK  198  A    between atoms: _479  and  _480
REMARK  199  A    between atoms: _484  and  _485
REMARK  200  A    between atoms: _490  and  _492
REMARK  201  A    between atoms: _492  and  _493
REMARK  202  A    between atoms: _492  and  _495
REMARK  203  A    between atoms: _495  and  _496
REMARK  204  A    between atoms: _499  and  _500
REMARK  205  A    between atoms: _505  and  _507
REMARK  206  A    between atoms: _507  and  _508
REMARK  207  A    between atoms: _507  and  _510
REMARK  208  A    between atoms: _513  and  _515
REMARK  209  A    between atoms: _515  and  _516
REMARK  210  A    between atoms: _515  and  _518
REMARK  211  A    between atoms: _518  and  _519
REMARK  212  A    between atoms: _524  and  _526
REMARK  213  A    between atoms: _526  and  _527
REMARK  214  A    between atoms: _526  and  _529
REMARK  215  A    between atoms: _529  and  _530
REMARK  216  A    between atoms: _533  and  _535
REMARK  217  A    between atoms: _535  and  _536
REMARK  218  A    between atoms: _535  and  _538
REMARK  219  A    between atoms: _538  and  _539
REMARK  220  A    between atoms: _542  and  _544
REMARK  221  A    between atoms: _544  and  _545
REMARK  222  A    between atoms: _547  and  _549
REMARK  223  A    between atoms: _549  and  _550
REMARK  224  A    between atoms: _549  and  _552
REMARK  225  A    between atoms: _552  and  _553
REMARK  226  A    between atoms: _553  and  _554
REMARK  227  A    between atoms: _554  and  _555
REMARK  228  A    between atoms: _564  and  _566
REMARK  229  A    between atoms: _566  and  _567
REMARK  230  A    between atoms: _566  and  _569
REMARK  231  A    between atoms: _569  and  _570
REMARK                            x       y       z     vdW  Elec       q    Type
REMARK                         _______ _______ _______ _____ _____    ______ ____
ROOT
ATOM      1  O   HOH     1      30.102   7.707  19.914  0.00  0.00    +0.000 OA
ENDROOT
TORSDOF 0
REMARK  Name = ../refined-set-2016/2fgu/2fgu_pocket.pdb
REMARK  231 active torsions:
REMARK  status: ('A' for Active; 'I' for Inactive)
REMARK    1  A    between atoms: _1  and  _3
REMARK    2  A    between atoms: _3  and  _4
REMARK    3  A    between atoms: _3  and  _6
REMARK    4  A    between atoms: _6  and  _7
REMARK    5  A    between atoms: _7  and  _8
REMARK    6  A    between atoms: _8  and  _9
REMARK    7  A    between atoms: _18  and  _20
REMARK    8  A    between atoms: _20  and  _21
REMARK    9  A    between atoms: _20  and  _23
REMARK   10  A    between atoms: _23  and  _24
REMARK   11  A    between atoms: _27  and  _29
REMARK   12  A    between atoms: _29  and  _30
REMARK   13  A    between atoms: _29  and  _32
REMARK   14  A    between atoms: _32  and  _33
REMARK   15  A    between atoms: _36  and  _38
REMARK   16  A    between atoms: _38  and  _39
REMARK   17  A    between atoms: _38  and  _41
REMARK   18  A    between atoms: _41  and  _42
REMARK   19  A    between atoms: _45  and  _47
REMARK   20  A    between atoms: _47  and  _48
REMARK   21  A    between atoms: _47  and  _50
REMARK   22  A    between atoms: _50  and  _51
REMARK   23  A    between atoms: _54  and  _56
REMARK   24  A    between atoms: _56  and  _57
REMARK   25  A    between atoms: _59  and  _61
REMARK   26  A    between atoms: _61  and  _62
REMARK   27  A    between atoms: _65  and  _67
REMARK   28  A    between atoms: _67  and  _68
REMARK   29  A    between atoms: _67  and  _70
REMARK   30  A    between atoms: _70  and  _71
REMARK   31  A    between atoms: _74  and  _76
REMARK   32  A    between atoms: _76  and  _77
REMARK   33  A    between atoms: _76  and  _79
REMARK   34  A    between atoms: _79  and  _80
REMARK   35  A    between atoms: _83  and  _85
REMARK   36  A    between atoms: _85  and  _86
REMARK   37  A    between atoms: _85  and  _88
REMARK   38  A    between atoms: _88  and  _89
REMARK   39  A    between atoms: _92  and  _94
REMARK   40  A    between atoms: _94  and  _95
REMARK   41  A    between atoms: _94  and  _97
REMARK   42  A    between atoms: _100  and  _102
REMARK   43  A    between atoms: _102  and  _103
REMARK   44  A    between atoms: _102  and  _105
REMARK   45  A    between atoms: _105  and  _106
REMARK   46  A    between atoms: _106  and  _107
REMARK   47  A    between atoms: _107  and  _108
REMARK   48  A    between atoms: _108  and  _109
REMARK   49  A    between atoms: _113  and  _115
REMARK   50  A    between atoms: _115  and  _116
REMARK   51  A    between atoms: _115  and  _118
REMARK   52  A    between atoms: _118  and  _119
REMARK   53  A    between atoms: _119  and  _120
REMARK   54  A    between atoms: _122  and  _124
REMARK   55  A    between atoms: _124  and  _125
REMARK   56  A    between atoms: _124  and  _127
REMARK   57  A    between atoms: _127  and  _128
REMARK   58  A    between atoms: _131  and  _133
REMARK   59  A    between atoms: _133  and  _134
REMARK   60  A    between atoms: _136  and  _138
REMARK   61  A    between atoms: _138  and  _139
REMARK   62  A    between atoms: _141  and  _143
REMARK   63  A    between atoms: _143  and  _144
REMARK   64  A    between atoms: _143  and  _146
REMARK   65  A    between atoms: _146  and  _147
REMARK   66  A    between atoms: _150  and  _152
REMARK   67  A    between atoms: _152  and  _153
REMARK   68  A    between atoms: _155  and  _157
REMARK   69  A    between atoms: _157  and  _158
REMARK   70  A    between atoms: _160  and  _162
REMARK   71  A    between atoms: _162  and  _163
REMARK   72  A    between atoms: _162  and  _165
REMARK   73  A    between atoms: _165  and  _166
REMARK   74  A    between atoms: _172  and  _174
REMARK   75  A    between atoms: _174  and  _175
REMARK   76  A    between atoms: _174  and  _177
REMARK   77  A    between atoms: _177  and  _178
REMARK   78  A    between atoms: _181  and  _183
REMARK   79  A    between atoms: _183  and  _184
REMARK   80  A    between atoms: _183  and  _186
REMARK   81  A    between atoms: _189  and  _191
REMARK   82  A    between atoms: _191  and  _192
REMARK   83  A    between atoms: _191  and  _194
REMARK   84  A    between atoms: _194  and  _195
REMARK   85  A    between atoms: _199  and  _200
REMARK   86  A    between atoms: _205  and  _207
REMARK   87  A    between atoms: _207  and  _208
REMARK   88  A    between atoms: _207  and  _210
REMARK   89  A    between atoms: _210  and  _211
REMARK   90  A    between atoms: _214  and  _215
REMARK   91  A    between atoms: _220  and  _222
REMARK   92  A    between atoms: _222  and  _223
REMARK   93  A    between atoms: _222  and  _225
REMARK   94  A    between atoms: _228  and  _230
REMARK   95  A    between atoms: _230  and  _231
REMARK   96  A    between atoms: _230  and  _233
REMARK   97  A    between atoms: _233  and  _234
REMARK   98  A    between atoms: _239  and  _241
REMARK   99  A    between atoms: _241  and  _242
REMARK  100  A    between atoms: _241  and  _244
REMARK  101  A    between atoms: _244  and  _245
REMARK  102  A    between atoms: _248  and  _250
REMARK  103  A    between atoms: _250  and  _251
REMARK  104  A    between atoms: _250  and  _253
REMARK  105  A    between atoms: _253  and  _254
REMARK  106  A    between atoms: _257  and  _259
REMARK  107  A    between atoms: _259  and  _260
REMARK  108  A    between atoms: _262  and  _264
REMARK  109  A    between atoms: _264  and  _265
REMARK  110  A    between atoms: _264  and  _267
REMARK  111  A    between atoms: _267  and  _268
REMARK  112  A    between atoms: _268  and  _269
REMARK  113  A    between atoms: _269  and  _270
REMARK  114  A    between atoms: _279  and  _281
REMARK  115  A    between atoms: _281  and  _282
REMARK  116  A    between atoms: _281  and  _284
REMARK  117  A    between atoms: _284  and  _285
REMARK  118  A    between atoms: _290  and  _292
REMARK  119  A    between atoms: _292  and  _293
REMARK  120  A    between atoms: _292  and  _295
REMARK  121  A    between atoms: _295  and  _296
REMARK  122  A    between atoms: _296  and  _297
REMARK  123  A    between atoms: _297  and  _298
REMARK  124  A    between atoms: _307  and  _309
REMARK  125  A    between atoms: _309  and  _310
REMARK  126  A    between atoms: _309  and  _312
REMARK  127  A    between atoms: _312  and  _313
REMARK  128  A    between atoms: _316  and  _318
REMARK  129  A    between atoms: _318  and  _319
REMARK  130  A    between atoms: _318  and  _321
REMARK  131  A    between atoms: _321  and  _322
REMARK  132  A    between atoms: _325  and  _327
REMARK  133  A    between atoms: _327  and  _328
REMARK  134  A    between atoms: _327  and  _330
REMARK  135  A    between atoms: _330  and  _331
REMARK  136  A    between atoms: _334  and  _336
REMARK  137  A    between atoms: _336  and  _337
REMARK  138  A    between atoms: _336  and  _339
REMARK  139  A    between atoms: _339  and  _340
REMARK  140  A    between atoms: _343  and  _345
REMARK  141  A    between atoms: _345  and  _346
REMARK  142  A    between atoms: _348  and  _350
REMARK  143  A    between atoms: _350  and  _351
REMARK  144  A    between atoms: _354  and  _356
REMARK  145  A    between atoms: _356  and  _357
REMARK  146  A    between atoms: _356  and  _359
REMARK  147  A    between atoms: _359  and  _360
REMARK  148  A    between atoms: _363  and  _365
REMARK  149  A    between atoms: _365  and  _366
REMARK  150  A    between atoms: _365  and  _368
REMARK  151  A    between atoms: _368  and  _369
REMARK  152  A    between atoms: _372  and  _374
REMARK  153  A    between atoms: _374  and  _375
REMARK  154  A    between atoms: _374  and  _377
REMARK  155  A    between atoms: _377  and  _378
REMARK  156  A    between atoms: _381  and  _383
REMARK  157  A    between atoms: _383  and  _384
REMARK  158  A    between atoms: _383  and  _386
REMARK  159  A    between atoms: _389  and  _391
REMARK  160  A    between atoms: _391  and  _392
REMARK  161  A    between atoms: _391  and  _394
REMARK  162  A    between atoms: _394  and  _395
REMARK  163  A    between atoms: _398  and  _400
REMARK  164  A    between atoms: _400  and  _401
REMARK  165  A    between atoms: _400  and  _403
REMARK  166  A    between atoms: _403  and  _404
REMARK  167  A    between atoms: _404  and  _405
REMARK  168  A    between atoms: _407  and  _409
REMARK  169  A    between atoms: _409  and  _410
REMARK  170  A    between atoms: _409  and  _412
REMARK  171  A    between atoms: _412  and  _413
REMARK  172  A    between atoms: _416  and  _418
REMARK  173  A    between atoms: _418  and  _419
REMARK  174  A    between atoms: _421  and  _423
REMARK  175  A    between atoms: _423  and  _424
REMARK  176  A    between atoms: _426  and  _428
REMARK  177  A    between atoms: _428  and  _429
REMARK  178  A    between atoms: _428  and  _431
REMARK  179  A    between atoms: _431  and  _432
REMARK  180  A    between atoms: _435  and  _437
REMARK  181  A    between atoms: _437  and  _438
REMARK  182  A    between atoms: _440  and  _442
REMARK  183  A    between atoms: _442  and  _443
REMARK  184  A    between atoms: _445  and  _447
REMARK  185  A    between atoms: _447  and  _448
REMARK  186  A    between atoms: _447  and  _450
REMARK  187  A    between atoms: _450  and  _451
REMARK  188  A    between atoms: _457  and  _459
REMARK  189  A    between atoms: _459  and  _460
REMARK  190  A    between atoms: _459  and  _462
REMARK  191  A    between atoms: _462  and  _463
REMARK  192  A    between atoms: _466  and  _468
REMARK  193  A    between atoms: _468  and  _469
REMARK  194  A    between atoms: _468  and  _471
REMARK  195  A    between atoms: _474  and  _476
REMARK  196  A    between atoms: _476  and  _477
REMARK  197  A    between atoms: _476  and  _479
REMARK  198  A    between atoms: _479  and  _480
REMARK  199  A    between atoms: _484  and  _485
REMARK  200  A    between atoms: _490  and  _492
REMARK  201  A    between atoms: _492  and  _493
REMARK  202  A    between atoms: _492  and  _495
REMARK  203  A    between atoms: _495  and  _496
REMARK  204  A    between atoms: _499  and  _500
REMARK  205  A    between atoms: _505  and  _507
REMARK  206  A    between atoms: _507  and  _508
REMARK  207  A    between atoms: _507  and  _510
REMARK  208  A    between atoms: _513  and  _515
REMARK  209  A    between atoms: _515  and  _516
REMARK  210  A    between atoms: _515  and  _518
REMARK  211  A    between atoms: _518  and  _519
REMARK  212  A    between atoms: _524  and  _526
REMARK  213  A    between atoms: _526  and  _527
REMARK  214  A    between atoms: _526  and  _529
REMARK  215  A    between atoms: _529  and  _530
REMARK  216  A    between atoms: _533  and  _535
REMARK  217  A    between atoms: _535  and  _536
REMARK  218  A    between atoms: _535  and  _538
REMARK  219  A    between atoms: _538  and  _539
REMARK  220  A    between atoms: _542  and  _544
REMARK  221  A    between atoms: _544  and  _545
REMARK  222  A    between atoms: _547  and  _549
REMARK  223  A    between atoms: _549  and  _550
REMARK  224  A    between atoms: _549  and  _552
REMARK  225  A    between atoms: _552  and  _553
REMARK  226  A    between atoms: _553  and  _554
REMARK  227  A    between atoms: _554  and  _555
REMARK  228  A    between atoms: _564  and  _566
REMARK  229  A    between atoms: _566  and  _567
REMARK  230  A    between atoms: _566  and  _569
REMARK  231  A    between atoms: _569  and  _570
REMARK                            x       y       z     vdW  Elec       q    Type
REMARK                         _______ _______ _______ _____ _____    ______ ____
ROOT
ATOM      1  O   HOH     1      30.954   5.627  18.674  0.00  0.00    +0.000 OA
ENDROOT
TORSDOF 0
REMARK  Name = ../refined-set-2016/2fgu/2fgu_pocket.pdb
REMARK  231 active torsions:
REMARK  status: ('A' for Active; 'I' for Inactive)
REMARK    1  A    between atoms: _1  and  _3
REMARK    2  A    between atoms: _3  and  _4
REMARK    3  A    between atoms: _3  and  _6
REMARK    4  A    between atoms: _6  and  _7
REMARK    5  A    between atoms: _7  and  _8
REMARK    6  A    between atoms: _8  and  _9
REMARK    7  A    between atoms: _18  and  _20
REMARK    8  A    between atoms: _20  and  _21
REMARK    9  A    between atoms: _20  and  _23
REMARK   10  A    between atoms: _23  and  _24
REMARK   11  A    between atoms: _27  and  _29
REMARK   12  A    between atoms: _29  and  _30
REMARK   13  A    between atoms: _29  and  _32
REMARK   14  A    between atoms: _32  and  _33
REMARK   15  A    between atoms: _36  and  _38
REMARK   16  A    between atoms: _38  and  _39
REMARK   17  A    between atoms: _38  and  _41
REMARK   18  A    between atoms: _41  and  _42
REMARK   19  A    between atoms: _45  and  _47
REMARK   20  A    between atoms: _47  and  _48
REMARK   21  A    between atoms: _47  and  _50
REMARK   22  A    between atoms: _50  and  _51
REMARK   23  A    between atoms: _54  and  _56
REMARK   24  A    between atoms: _56  and  _57
REMARK   25  A    between atoms: _59  and  _61
REMARK   26  A    between atoms: _61  and  _62
REMARK   27  A    between atoms: _65  and  _67
REMARK   28  A    between atoms: _67  and  _68
REMARK   29  A    between atoms: _67  and  _70
REMARK   30  A    between atoms: _70  and  _71
REMARK   31  A    between atoms: _74  and  _76
REMARK   32  A    between atoms: _76  and  _77
REMARK   33  A    between atoms: _76  and  _79
REMARK   34  A    between atoms: _79  and  _80
REMARK   35  A    between atoms: _83  and  _85
REMARK   36  A    between atoms: _85  and  _86
REMARK   37  A    between atoms: _85  and  _88
REMARK   38  A    between atoms: _88  and  _89
REMARK   39  A    between atoms: _92  and  _94
REMARK   40  A    between atoms: _94  and  _95
REMARK   41  A    between atoms: _94  and  _97
REMARK   42  A    between atoms: _100  and  _102
REMARK   43  A    between atoms: _102  and  _103
REMARK   44  A    between atoms: _102  and  _105
REMARK   45  A    between atoms: _105  and  _106
REMARK   46  A    between atoms: _106  and  _107
REMARK   47  A    between atoms: _107  and  _108
REMARK   48  A    between atoms: _108  and  _109
REMARK   49  A    between atoms: _113  and  _115
REMARK   50  A    between atoms: _115  and  _116
REMARK   51  A    between atoms: _115  and  _118
REMARK   52  A    between atoms: _118  and  _119
REMARK   53  A    between atoms: _119  and  _120
REMARK   54  A    between atoms: _122  and  _124
REMARK   55  A    between atoms: _124  and  _125
REMARK   56  A    between atoms: _124  and  _127
REMARK   57  A    between atoms: _127  and  _128
REMARK   58  A    between atoms: _131  and  _133
REMARK   59  A    between atoms: _133  and  _134
REMARK   60  A    between atoms: _136  and  _138
REMARK   61  A    between atoms: _138  and  _139
REMARK   62  A    between atoms: _141  and  _143
REMARK   63  A    between atoms: _143  and  _144
REMARK   64  A    between atoms: _143  and  _146
REMARK   65  A    between atoms: _146  and  _147
REMARK   66  A    between atoms: _150  and  _152
REMARK   67  A    between atoms: _152  and  _153
REMARK   68  A    between atoms: _155  and  _157
REMARK   69  A    between atoms: _157  and  _158
REMARK   70  A    between atoms: _160  and  _162
REMARK   71  A    between atoms: _162  and  _163
REMARK   72  A    between atoms: _162  and  _165
REMARK   73  A    between atoms: _165  and  _166
REMARK   74  A    between atoms: _172  and  _174
REMARK   75  A    between atoms: _174  and  _175
REMARK   76  A    between atoms: _174  and  _177
REMARK   77  A    between atoms: _177  and  _178
REMARK   78  A    between atoms: _181  and  _183
REMARK   79  A    between atoms: _183  and  _184
REMARK   80  A    between atoms: _183  and  _186
REMARK   81  A    between atoms: _189  and  _191
REMARK   82  A    between atoms: _191  and  _192
REMARK   83  A    between atoms: _191  and  _194
REMARK   84  A    between atoms: _194  and  _195
REMARK   85  A    between atoms: _199  and  _200
REMARK   86  A    between atoms: _205  and  _207
REMARK   87  A    between atoms: _207  and  _208
REMARK   88  A    between atoms: _207  and  _210
REMARK   89  A    between atoms: _210  and  _211
REMARK   90  A    between atoms: _214  and  _215
REMARK   91  A    between atoms: _220  and  _222
REMARK   92  A    between atoms: _222  and  _223
REMARK   93  A    between atoms: _222  and  _225
REMARK   94  A    between atoms: _228  and  _230
REMARK   95  A    between atoms: _230  and  _231
REMARK   96  A    between atoms: _230  and  _233
REMARK   97  A    between atoms: _233  and  _234
REMARK   98  A    between atoms: _239  and  _241
REMARK   99  A    between atoms: _241  and  _242
REMARK  100  A    between atoms: _241  and  _244
REMARK  101  A    between atoms: _244  and  _245
REMARK  102  A    between atoms: _248  and  _250
REMARK  103  A    between atoms: _250  and  _251
REMARK  104  A    between atoms: _250  and  _253
REMARK  105  A    between atoms: _253  and  _254
REMARK  106  A    between atoms: _257  and  _259
REMARK  107  A    between atoms: _259  and  _260
REMARK  108  A    between atoms: _262  and  _264
REMARK  109  A    between atoms: _264  and  _265
REMARK  110  A    between atoms: _264  and  _267
REMARK  111  A    between atoms: _267  and  _268
REMARK  112  A    between atoms: _268  and  _269
REMARK  113  A    between atoms: _269  and  _270
REMARK  114  A    between atoms: _279  and  _281
REMARK  115  A    between atoms: _281  and  _282
REMARK  116  A    between atoms: _281  and  _284
REMARK  117  A    between atoms: _284  and  _285
REMARK  118  A    between atoms: _290  and  _292
REMARK  119  A    between atoms: _292  and  _293
REMARK  120  A    between atoms: _292  and  _295
REMARK  121  A    between atoms: _295  and  _296
REMARK  122  A    between atoms: _296  and  _297
REMARK  123  A    between atoms: _297  and  _298
REMARK  124  A    between atoms: _307  and  _309
REMARK  125  A    between atoms: _309  and  _310
REMARK  126  A    between atoms: _309  and  _312
REMARK  127  A    between atoms: _312  and  _313
REMARK  128  A    between atoms: _316  and  _318
REMARK  129  A    between atoms: _318  and  _319
REMARK  130  A    between atoms: _318  and  _321
REMARK  131  A    between atoms: _321  and  _322
REMARK  132  A    between atoms: _325  and  _327
REMARK  133  A    between atoms: _327  and  _328
REMARK  134  A    between atoms: _327  and  _330
REMARK  135  A    between atoms: _330  and  _331
REMARK  136  A    between atoms: _334  and  _336
REMARK  137  A    between atoms: _336  and  _337
REMARK  138  A    between atoms: _336  and  _339
REMARK  139  A    between atoms: _339  and  _340
REMARK  140  A    between atoms: _343  and  _345
REMARK  141  A    between atoms: _345  and  _346
REMARK  142  A    between atoms: _348  and  _350
REMARK  143  A    between atoms: _350  and  _351
REMARK  144  A    between atoms: _354  and  _356
REMARK  145  A    between atoms: _356  and  _357
REMARK  146  A    between atoms: _356  and  _359
REMARK  147  A    between atoms: _359  and  _360
REMARK  148  A    between atoms: _363  and  _365
REMARK  149  A    between atoms: _365  and  _366
REMARK  150  A    between atoms: _365  and  _368
REMARK  151  A    between atoms: _368  and  _369
REMARK  152  A    between atoms: _372  and  _374
REMARK  153  A    between atoms: _374  and  _375
REMARK  154  A    between atoms: _374  and  _377
REMARK  155  A    between atoms: _377  and  _378
REMARK  156  A    between atoms: _381  and  _383
REMARK  157  A    between atoms: _383  and  _384
REMARK  158  A    between atoms: _383  and  _386
REMARK  159  A    between atoms: _389  and  _391
REMARK  160  A    between atoms: _391  and  _392
REMARK  161  A    between atoms: _391  and  _394
REMARK  162  A    between atoms: _394  and  _395
REMARK  163  A    between atoms: _398  and  _400
REMARK  164  A    between atoms: _400  and  _401
REMARK  165  A    between atoms: _400  and  _403
REMARK  166  A    between atoms: _403  and  _404
REMARK  167  A    between atoms: _404  and  _405
REMARK  168  A    between atoms: _407  and  _409
REMARK  169  A    between atoms: _409  and  _410
REMARK  170  A    between atoms: _409  and  _412
REMARK  171  A    between atoms: _412  and  _413
REMARK  172  A    between atoms: _416  and  _418
REMARK  173  A    between atoms: _418  and  _419
REMARK  174  A    between atoms: _421  and  _423
REMARK  175  A    between atoms: _423  and  _424
REMARK  176  A    between atoms: _426  and  _428
REMARK  177  A    between atoms: _428  and  _429
REMARK  178  A    between atoms: _428  and  _431
REMARK  179  A    between atoms: _431  and  _432
REMARK  180  A    between atoms: _435  and  _437
REMARK  181  A    between atoms: _437  and  _438
REMARK  182  A    between atoms: _440  and  _442
REMARK  183  A    between atoms: _442  and  _443
REMARK  184  A    between atoms: _445  and  _447
REMARK  185  A    between atoms: _447  and  _448
REMARK  186  A    between atoms: _447  and  _450
REMARK  187  A    between atoms: _450  and  _451
REMARK  188  A    between atoms: _457  and  _459
REMARK  189  A    between atoms: _459  and  _460
REMARK  190  A    between atoms: _459  and  _462
REMARK  191  A    between atoms: _462  and  _463
REMARK  192  A    between atoms: _466  and  _468
REMARK  193  A    between atoms: _468  and  _469
REMARK  194  A    between atoms: _468  and  _471
REMARK  195  A    between atoms: _474  and  _476
REMARK  196  A    between atoms: _476  and  _477
REMARK  197  A    between atoms: _476  and  _479
REMARK  198  A    between atoms: _479  and  _480
REMARK  199  A    between atoms: _484  and  _485
REMARK  200  A    between atoms: _490  and  _492
REMARK  201  A    between atoms: _492  and  _493
REMARK  202  A    between atoms: _492  and  _495
REMARK  203  A    between atoms: _495  and  _496
REMARK  204  A    between atoms: _499  and  _500
REMARK  205  A    between atoms: _505  and  _507
REMARK  206  A    between atoms: _507  and  _508
REMARK  207  A    between atoms: _507  and  _510
REMARK  208  A    between atoms: _513  and  _515
REMARK  209  A    between atoms: _515  and  _516
REMARK  210  A    between atoms: _515  and  _518
REMARK  211  A    between atoms: _518  and  _519
REMARK  212  A    between atoms: _524  and  _526
REMARK  213  A    between atoms: _526  and  _527
REMARK  214  A    between atoms: _526  and  _529
REMARK  215  A    between atoms: _529  and  _530
REMARK  216  A    between atoms: _533  and  _535
REMARK  217  A    between atoms: _535  and  _536
REMARK  218  A    between atoms: _535  and  _538
REMARK  219  A    between atoms: _538  and  _539
REMARK  220  A    between atoms: _542  and  _544
REMARK  221  A    between atoms: _544  and  _545
REMARK  222  A    between atoms: _547  and  _549
REMARK  223  A    between atoms: _549  and  _550
REMARK  224  A    between atoms: _549  and  _552
REMARK  225  A    between atoms: _552  and  _553
REMARK  226  A    between atoms: _553  and  _554
REMARK  227  A    between atoms: _554  and  _555
REMARK  228  A    between atoms: _564  and  _566
REMARK  229  A    between atoms: _566  and  _567
REMARK  230  A    between atoms: _566  and  _569
REMARK  231  A    between atoms: _569  and  _570
REMARK                            x       y       z     vdW  Elec       q    Type
REMARK                         _______ _______ _______ _____ _____    ______ ____
ROOT
ATOM      1  O   HOH     1      22.499 -12.991   9.836  0.00  0.00    +0.000 OA
ENDROOT
TORSDOF 0
REMARK  Name = ../refined-set-2016/2fgu/2fgu_pocket.pdb
REMARK  231 active torsions:
REMARK  status: ('A' for Active; 'I' for Inactive)
REMARK    1  A    between atoms: _1  and  _3
REMARK    2  A    between atoms: _3  and  _4
REMARK    3  A    between atoms: _3  and  _6
REMARK    4  A    between atoms: _6  and  _7
REMARK    5  A    between atoms: _7  and  _8
REMARK    6  A    between atoms: _8  and  _9
REMARK    7  A    between atoms: _18  and  _20
REMARK    8  A    between atoms: _20  and  _21
REMARK    9  A    between atoms: _20  and  _23
REMARK   10  A    between atoms: _23  and  _24
REMARK   11  A    between atoms: _27  and  _29
REMARK   12  A    between atoms: _29  and  _30
REMARK   13  A    between atoms: _29  and  _32
REMARK   14  A    between atoms: _32  and  _33
REMARK   15  A    between atoms: _36  and  _38
REMARK   16  A    between atoms: _38  and  _39
REMARK   17  A    between atoms: _38  and  _41
REMARK   18  A    between atoms: _41  and  _42
REMARK   19  A    between atoms: _45  and  _47
REMARK   20  A    between atoms: _47  and  _48
REMARK   21  A    between atoms: _47  and  _50
REMARK   22  A    between atoms: _50  and  _51
REMARK   23  A    between atoms: _54  and  _56
REMARK   24  A    between atoms: _56  and  _57
REMARK   25  A    between atoms: _59  and  _61
REMARK   26  A    between atoms: _61  and  _62
REMARK   27  A    between atoms: _65  and  _67
REMARK   28  A    between atoms: _67  and  _68
REMARK   29  A    between atoms: _67  and  _70
REMARK   30  A    between atoms: _70  and  _71
REMARK   31  A    between atoms: _74  and  _76
REMARK   32  A    between atoms: _76  and  _77
REMARK   33  A    between atoms: _76  and  _79
REMARK   34  A    between atoms: _79  and  _80
REMARK   35  A    between atoms: _83  and  _85
REMARK   36  A    between atoms: _85  and  _86
REMARK   37  A    between atoms: _85  and  _88
REMARK   38  A    between atoms: _88  and  _89
REMARK   39  A    between atoms: _92  and  _94
REMARK   40  A    between atoms: _94  and  _95
REMARK   41  A    between atoms: _94  and  _97
REMARK   42  A    between atoms: _100  and  _102
REMARK   43  A    between atoms: _102  and  _103
REMARK   44  A    between atoms: _102  and  _105
REMARK   45  A    between atoms: _105  and  _106
REMARK   46  A    between atoms: _106  and  _107
REMARK   47  A    between atoms: _107  and  _108
REMARK   48  A    between atoms: _108  and  _109
REMARK   49  A    between atoms: _113  and  _115
REMARK   50  A    between atoms: _115  and  _116
REMARK   51  A    between atoms: _115  and  _118
REMARK   52  A    between atoms: _118  and  _119
REMARK   53  A    between atoms: _119  and  _120
REMARK   54  A    between atoms: _122  and  _124
REMARK   55  A    between atoms: _124  and  _125
REMARK   56  A    between atoms: _124  and  _127
REMARK   57  A    between atoms: _127  and  _128
REMARK   58  A    between atoms: _131  and  _133
REMARK   59  A    between atoms: _133  and  _134
REMARK   60  A    between atoms: _136  and  _138
REMARK   61  A    between atoms: _138  and  _139
REMARK   62  A    between atoms: _141  and  _143
REMARK   63  A    between atoms: _143  and  _144
REMARK   64  A    between atoms: _143  and  _146
REMARK   65  A    between atoms: _146  and  _147
REMARK   66  A    between atoms: _150  and  _152
REMARK   67  A    between atoms: _152  and  _153
REMARK   68  A    between atoms: _155  and  _157
REMARK   69  A    between atoms: _157  and  _158
REMARK   70  A    between atoms: _160  and  _162
REMARK   71  A    between atoms: _162  and  _163
REMARK   72  A    between atoms: _162  and  _165
REMARK   73  A    between atoms: _165  and  _166
REMARK   74  A    between atoms: _172  and  _174
REMARK   75  A    between atoms: _174  and  _175
REMARK   76  A    between atoms: _174  and  _177
REMARK   77  A    between atoms: _177  and  _178
REMARK   78  A    between atoms: _181  and  _183
REMARK   79  A    between atoms: _183  and  _184
REMARK   80  A    between atoms: _183  and  _186
REMARK   81  A    between atoms: _189  and  _191
REMARK   82  A    between atoms: _191  and  _192
REMARK   83  A    between atoms: _191  and  _194
REMARK   84  A    between atoms: _194  and  _195
REMARK   85  A    between atoms: _199  and  _200
REMARK   86  A    between atoms: _205  and  _207
REMARK   87  A    between atoms: _207  and  _208
REMARK   88  A    between atoms: _207  and  _210
REMARK   89  A    between atoms: _210  and  _211
REMARK   90  A    between atoms: _214  and  _215
REMARK   91  A    between atoms: _220  and  _222
REMARK   92  A    between atoms: _222  and  _223
REMARK   93  A    between atoms: _222  and  _225
REMARK   94  A    between atoms: _228  and  _230
REMARK   95  A    between atoms: _230  and  _231
REMARK   96  A    between atoms: _230  and  _233
REMARK   97  A    between atoms: _233  and  _234
REMARK   98  A    between atoms: _239  and  _241
REMARK   99  A    between atoms: _241  and  _242
REMARK  100  A    between atoms: _241  and  _244
REMARK  101  A    between atoms: _244  and  _245
REMARK  102  A    between atoms: _248  and  _250
REMARK  103  A    between atoms: _250  and  _251
REMARK  104  A    between atoms: _250  and  _253
REMARK  105  A    between atoms: _253  and  _254
REMARK  106  A    between atoms: _257  and  _259
REMARK  107  A    between atoms: _259  and  _260
REMARK  108  A    between atoms: _262  and  _264
REMARK  109  A    between atoms: _264  and  _265
REMARK  110  A    between atoms: _264  and  _267
REMARK  111  A    between atoms: _267  and  _268
REMARK  112  A    between atoms: _268  and  _269
REMARK  113  A    between atoms: _269  and  _270
REMARK  114  A    between atoms: _279  and  _281
REMARK  115  A    between atoms: _281  and  _282
REMARK  116  A    between atoms: _281  and  _284
REMARK  117  A    between atoms: _284  and  _285
REMARK  118  A    between atoms: _290  and  _292
REMARK  119  A    between atoms: _292  and  _293
REMARK  120  A    between atoms: _292  and  _295
REMARK  121  A    between atoms: _295  and  _296
REMARK  122  A    between atoms: _296  and  _297
REMARK  123  A    between atoms: _297  and  _298
REMARK  124  A    between atoms: _307  and  _309
REMARK  125  A    between atoms: _309  and  _310
REMARK  126  A    between atoms: _309  and  _312
REMARK  127  A    between atoms: _312  and  _313
REMARK  128  A    between atoms: _316  and  _318
REMARK  129  A    between atoms: _318  and  _319
REMARK  130  A    between atoms: _318  and  _321
REMARK  131  A    between atoms: _321  and  _322
REMARK  132  A    between atoms: _325  and  _327
REMARK  133  A    between atoms: _327  and  _328
REMARK  134  A    between atoms: _327  and  _330
REMARK  135  A    between atoms: _330  and  _331
REMARK  136  A    between atoms: _334  and  _336
REMARK  137  A    between atoms: _336  and  _337
REMARK  138  A    between atoms: _336  and  _339
REMARK  139  A    between atoms: _339  and  _340
REMARK  140  A    between atoms: _343  and  _345
REMARK  141  A    between atoms: _345  and  _346
REMARK  142  A    between atoms: _348  and  _350
REMARK  143  A    between atoms: _350  and  _351
REMARK  144  A    between atoms: _354  and  _356
REMARK  145  A    between atoms: _356  and  _357
REMARK  146  A    between atoms: _356  and  _359
REMARK  147  A    between atoms: _359  and  _360
REMARK  148  A    between atoms: _363  and  _365
REMARK  149  A    between atoms: _365  and  _366
REMARK  150  A    between atoms: _365  and  _368
REMARK  151  A    between atoms: _368  and  _369
REMARK  152  A    between atoms: _372  and  _374
REMARK  153  A    between atoms: _374  and  _375
REMARK  154  A    between atoms: _374  and  _377
REMARK  155  A    between atoms: _377  and  _378
REMARK  156  A    between atoms: _381  and  _383
REMARK  157  A    between atoms: _383  and  _384
REMARK  158  A    between atoms: _383  and  _386
REMARK  159  A    between atoms: _389  and  _391
REMARK  160  A    between atoms: _391  and  _392
REMARK  161  A    between atoms: _391  and  _394
REMARK  162  A    between atoms: _394  and  _395
REMARK  163  A    between atoms: _398  and  _400
REMARK  164  A    between atoms: _400  and  _401
REMARK  165  A    between atoms: _400  and  _403
REMARK  166  A    between atoms: _403  and  _404
REMARK  167  A    between atoms: _404  and  _405
REMARK  168  A    between atoms: _407  and  _409
REMARK  169  A    between atoms: _409  and  _410
REMARK  170  A    between atoms: _409  and  _412
REMARK  171  A    between atoms: _412  and  _413
REMARK  172  A    between atoms: _416  and  _418
REMARK  173  A    between atoms: _418  and  _419
REMARK  174  A    between atoms: _421  and  _423
REMARK  175  A    between atoms: _423  and  _424
REMARK  176  A    between atoms: _426  and  _428
REMARK  177  A    between atoms: _428  and  _429
REMARK  178  A    between atoms: _428  and  _431
REMARK  179  A    between atoms: _431  and  _432
REMARK  180  A    between atoms: _435  and  _437
REMARK  181  A    between atoms: _437  and  _438
REMARK  182  A    between atoms: _440  and  _442
REMARK  183  A    between atoms: _442  and  _443
REMARK  184  A    between atoms: _445  and  _447
REMARK  185  A    between atoms: _447  and  _448
REMARK  186  A    between atoms: _447  and  _450
REMARK  187  A    between atoms: _450  and  _451
REMARK  188  A    between atoms: _457  and  _459
REMARK  189  A    between atoms: _459  and  _460
REMARK  190  A    between atoms: _459  and  _462
REMARK  191  A    between atoms: _462  and  _463
REMARK  192  A    between atoms: _466  and  _468
REMARK  193  A    between atoms: _468  and  _469
REMARK  194  A    between atoms: _468  and  _471
REMARK  195  A    between atoms: _474  and  _476
REMARK  196  A    between atoms: _476  and  _477
REMARK  197  A    between atoms: _476  and  _479
REMARK  198  A    between atoms: _479  and  _480
REMARK  199  A    between atoms: _484  and  _485
REMARK  200  A    between atoms: _490  and  _492
REMARK  201  A    between atoms: _492  and  _493
REMARK  202  A    between atoms: _492  and  _495
REMARK  203  A    between atoms: _495  and  _496
REMARK  204  A    between atoms: _499  and  _500
REMARK  205  A    between atoms: _505  and  _507
REMARK  206  A    between atoms: _507  and  _508
REMARK  207  A    between atoms: _507  and  _510
REMARK  208  A    between atoms: _513  and  _515
REMARK  209  A    between atoms: _515  and  _516
REMARK  210  A    between atoms: _515  and  _518
REMARK  211  A    between atoms: _518  and  _519
REMARK  212  A    between atoms: _524  and  _526
REMARK  213  A    between atoms: _526  and  _527
REMARK  214  A    between atoms: _526  and  _529
REMARK  215  A    between atoms: _529  and  _530
REMARK  216  A    between atoms: _533  and  _535
REMARK  217  A    between atoms: _535  and  _536
REMARK  218  A    between atoms: _535  and  _538
REMARK  219  A    between atoms: _538  and  _539
REMARK  220  A    between atoms: _542  and  _544
REMARK  221  A    between atoms: _544  and  _545
REMARK  222  A    between atoms: _547  and  _549
REMARK  223  A    between atoms: _549  and  _550
REMARK  224  A    between atoms: _549  and  _552
REMARK  225  A    between atoms: _552  and  _553
REMARK  226  A    between atoms: _553  and  _554
REMARK  227  A    between atoms: _554  and  _555
REMARK  228  A    between atoms: _564  and  _566
REMARK  229  A    between atoms: _566  and  _567
REMARK  230  A    between atoms: _566  and  _569
REMARK  231  A    between atoms: _569  and  _570
REMARK                            x       y       z     vdW  Elec       q    Type
REMARK                         _______ _______ _______ _____ _____    ______ ____
ROOT
ATOM      1  O   HOH     1      23.378   7.622  22.440  0.00  0.00    +0.000 OA
ENDROOT
TORSDOF 0
REMARK  Name = ../refined-set-2016/2fgu/2fgu_pocket.pdb
REMARK  231 active torsions:
REMARK  status: ('A' for Active; 'I' for Inactive)
REMARK    1  A    between atoms: _1  and  _3
REMARK    2  A    between atoms: _3  and  _4
REMARK    3  A    between atoms: _3  and  _6
REMARK    4  A    between atoms: _6  and  _7
REMARK    5  A    between atoms: _7  and  _8
REMARK    6  A    between atoms: _8  and  _9
REMARK    7  A    between atoms: _18  and  _20
REMARK    8  A    between atoms: _20  and  _21
REMARK    9  A    between atoms: _20  and  _23
REMARK   10  A    between atoms: _23  and  _24
REMARK   11  A    between atoms: _27  and  _29
REMARK   12  A    between atoms: _29  and  _30
REMARK   13  A    between atoms: _29  and  _32
REMARK   14  A    between atoms: _32  and  _33
REMARK   15  A    between atoms: _36  and  _38
REMARK   16  A    between atoms: _38  and  _39
REMARK   17  A    between atoms: _38  and  _41
REMARK   18  A    between atoms: _41  and  _42
REMARK   19  A    between atoms: _45  and  _47
REMARK   20  A    between atoms: _47  and  _48
REMARK   21  A    between atoms: _47  and  _50
REMARK   22  A    between atoms: _50  and  _51
REMARK   23  A    between atoms: _54  and  _56
REMARK   24  A    between atoms: _56  and  _57
REMARK   25  A    between atoms: _59  and  _61
REMARK   26  A    between atoms: _61  and  _62
REMARK   27  A    between atoms: _65  and  _67
REMARK   28  A    between atoms: _67  and  _68
REMARK   29  A    between atoms: _67  and  _70
REMARK   30  A    between atoms: _70  and  _71
REMARK   31  A    between atoms: _74  and  _76
REMARK   32  A    between atoms: _76  and  _77
REMARK   33  A    between atoms: _76  and  _79
REMARK   34  A    between atoms: _79  and  _80
REMARK   35  A    between atoms: _83  and  _85
REMARK   36  A    between atoms: _85  and  _86
REMARK   37  A    between atoms: _85  and  _88
REMARK   38  A    between atoms: _88  and  _89
REMARK   39  A    between atoms: _92  and  _94
REMARK   40  A    between atoms: _94  and  _95
REMARK   41  A    between atoms: _94  and  _97
REMARK   42  A    between atoms: _100  and  _102
REMARK   43  A    between atoms: _102  and  _103
REMARK   44  A    between atoms: _102  and  _105
REMARK   45  A    between atoms: _105  and  _106
REMARK   46  A    between atoms: _106  and  _107
REMARK   47  A    between atoms: _107  and  _108
REMARK   48  A    between atoms: _108  and  _109
REMARK   49  A    between atoms: _113  and  _115
REMARK   50  A    between atoms: _115  and  _116
REMARK   51  A    between atoms: _115  and  _118
REMARK   52  A    between atoms: _118  and  _119
REMARK   53  A    between atoms: _119  and  _120
REMARK   54  A    between atoms: _122  and  _124
REMARK   55  A    between atoms: _124  and  _125
REMARK   56  A    between atoms: _124  and  _127
REMARK   57  A    between atoms: _127  and  _128
REMARK   58  A    between atoms: _131  and  _133
REMARK   59  A    between atoms: _133  and  _134
REMARK   60  A    between atoms: _136  and  _138
REMARK   61  A    between atoms: _138  and  _139
REMARK   62  A    between atoms: _141  and  _143
REMARK   63  A    between atoms: _143  and  _144
REMARK   64  A    between atoms: _143  and  _146
REMARK   65  A    between atoms: _146  and  _147
REMARK   66  A    between atoms: _150  and  _152
REMARK   67  A    between atoms: _152  and  _153
REMARK   68  A    between atoms: _155  and  _157
REMARK   69  A    between atoms: _157  and  _158
REMARK   70  A    between atoms: _160  and  _162
REMARK   71  A    between atoms: _162  and  _163
REMARK   72  A    between atoms: _162  and  _165
REMARK   73  A    between atoms: _165  and  _166
REMARK   74  A    between atoms: _172  and  _174
REMARK   75  A    between atoms: _174  and  _175
REMARK   76  A    between atoms: _174  and  _177
REMARK   77  A    between atoms: _177  and  _178
REMARK   78  A    between atoms: _181  and  _183
REMARK   79  A    between atoms: _183  and  _184
REMARK   80  A    between atoms: _183  and  _186
REMARK   81  A    between atoms: _189  and  _191
REMARK   82  A    between atoms: _191  and  _192
REMARK   83  A    between atoms: _191  and  _194
REMARK   84  A    between atoms: _194  and  _195
REMARK   85  A    between atoms: _199  and  _200
REMARK   86  A    between atoms: _205  and  _207
REMARK   87  A    between atoms: _207  and  _208
REMARK   88  A    between atoms: _207  and  _210
REMARK   89  A    between atoms: _210  and  _211
REMARK   90  A    between atoms: _214  and  _215
REMARK   91  A    between atoms: _220  and  _222
REMARK   92  A    between atoms: _222  and  _223
REMARK   93  A    between atoms: _222  and  _225
REMARK   94  A    between atoms: _228  and  _230
REMARK   95  A    between atoms: _230  and  _231
REMARK   96  A    between atoms: _230  and  _233
REMARK   97  A    between atoms: _233  and  _234
REMARK   98  A    between atoms: _239  and  _241
REMARK   99  A    between atoms: _241  and  _242
REMARK  100  A    between atoms: _241  and  _244
REMARK  101  A    between atoms: _244  and  _245
REMARK  102  A    between atoms: _248  and  _250
REMARK  103  A    between atoms: _250  and  _251
REMARK  104  A    between atoms: _250  and  _253
REMARK  105  A    between atoms: _253  and  _254
REMARK  106  A    between atoms: _257  and  _259
REMARK  107  A    between atoms: _259  and  _260
REMARK  108  A    between atoms: _262  and  _264
REMARK  109  A    between atoms: _264  and  _265
REMARK  110  A    between atoms: _264  and  _267
REMARK  111  A    between atoms: _267  and  _268
REMARK  112  A    between atoms: _268  and  _269
REMARK  113  A    between atoms: _269  and  _270
REMARK  114  A    between atoms: _279  and  _281
REMARK  115  A    between atoms: _281  and  _282
REMARK  116  A    between atoms: _281  and  _284
REMARK  117  A    between atoms: _284  and  _285
REMARK  118  A    between atoms: _290  and  _292
REMARK  119  A    between atoms: _292  and  _293
REMARK  120  A    between atoms: _292  and  _295
REMARK  121  A    between atoms: _295  and  _296
REMARK  122  A    between atoms: _296  and  _297
REMARK  123  A    between atoms: _297  and  _298
REMARK  124  A    between atoms: _307  and  _309
REMARK  125  A    between atoms: _309  and  _310
REMARK  126  A    between atoms: _309  and  _312
REMARK  127  A    between atoms: _312  and  _313
REMARK  128  A    between atoms: _316  and  _318
REMARK  129  A    between atoms: _318  and  _319
REMARK  130  A    between atoms: _318  and  _321
REMARK  131  A    between atoms: _321  and  _322
REMARK  132  A    between atoms: _325  and  _327
REMARK  133  A    between atoms: _327  and  _328
REMARK  134  A    between atoms: _327  and  _330
REMARK  135  A    between atoms: _330  and  _331
REMARK  136  A    between atoms: _334  and  _336
REMARK  137  A    between atoms: _336  and  _337
REMARK  138  A    between atoms: _336  and  _339
REMARK  139  A    between atoms: _339  and  _340
REMARK  140  A    between atoms: _343  and  _345
REMARK  141  A    between atoms: _345  and  _346
REMARK  142  A    between atoms: _348  and  _350
REMARK  143  A    between atoms: _350  and  _351
REMARK  144  A    between atoms: _354  and  _356
REMARK  145  A    between atoms: _356  and  _357
REMARK  146  A    between atoms: _356  and  _359
REMARK  147  A    between atoms: _359  and  _360
REMARK  148  A    between atoms: _363  and  _365
REMARK  149  A    between atoms: _365  and  _366
REMARK  150  A    between atoms: _365  and  _368
REMARK  151  A    between atoms: _368  and  _369
REMARK  152  A    between atoms: _372  and  _374
REMARK  153  A    between atoms: _374  and  _375
REMARK  154  A    between atoms: _374  and  _377
REMARK  155  A    between atoms: _377  and  _378
REMARK  156  A    between atoms: _381  and  _383
REMARK  157  A    between atoms: _383  and  _384
REMARK  158  A    between atoms: _383  and  _386
REMARK  159  A    between atoms: _389  and  _391
REMARK  160  A    between atoms: _391  and  _392
REMARK  161  A    between atoms: _391  and  _394
REMARK  162  A    between atoms: _394  and  _395
REMARK  163  A    between atoms: _398  and  _400
REMARK  164  A    between atoms: _400  and  _401
REMARK  165  A    between atoms: _400  and  _403
REMARK  166  A    between atoms: _403  and  _404
REMARK  167  A    between atoms: _404  and  _405
REMARK  168  A    between atoms: _407  and  _409
REMARK  169  A    between atoms: _409  and  _410
REMARK  170  A    between atoms: _409  and  _412
REMARK  171  A    between atoms: _412  and  _413
REMARK  172  A    between atoms: _416  and  _418
REMARK  173  A    between atoms: _418  and  _419
REMARK  174  A    between atoms: _421  and  _423
REMARK  175  A    between atoms: _423  and  _424
REMARK  176  A    between atoms: _426  and  _428
REMARK  177  A    between atoms: _428  and  _429
REMARK  178  A    between atoms: _428  and  _431
REMARK  179  A    between atoms: _431  and  _432
REMARK  180  A    between atoms: _435  and  _437
REMARK  181  A    between atoms: _437  and  _438
REMARK  182  A    between atoms: _440  and  _442
REMARK  183  A    between atoms: _442  and  _443
REMARK  184  A    between atoms: _445  and  _447
REMARK  185  A    between atoms: _447  and  _448
REMARK  186  A    between atoms: _447  and  _450
REMARK  187  A    between atoms: _450  and  _451
REMARK  188  A    between atoms: _457  and  _459
REMARK  189  A    between atoms: _459  and  _460
REMARK  190  A    between atoms: _459  and  _462
REMARK  191  A    between atoms: _462  and  _463
REMARK  192  A    between atoms: _466  and  _468
REMARK  193  A    between atoms: _468  and  _469
REMARK  194  A    between atoms: _468  and  _471
REMARK  195  A    between atoms: _474  and  _476
REMARK  196  A    between atoms: _476  and  _477
REMARK  197  A    between atoms: _476  and  _479
REMARK  198  A    between atoms: _479  and  _480
REMARK  199  A    between atoms: _484  and  _485
REMARK  200  A    between atoms: _490  and  _492
REMARK  201  A    between atoms: _492  and  _493
REMARK  202  A    between atoms: _492  and  _495
REMARK  203  A    between atoms: _495  and  _496
REMARK  204  A    between atoms: _499  and  _500
REMARK  205  A    between atoms: _505  and  _507
REMARK  206  A    between atoms: _507  and  _508
REMARK  207  A    between atoms: _507  and  _510
REMARK  208  A    between atoms: _513  and  _515
REMARK  209  A    between atoms: _515  and  _516
REMARK  210  A    between atoms: _515  and  _518
REMARK  211  A    between atoms: _518  and  _519
REMARK  212  A    between atoms: _524  and  _526
REMARK  213  A    between atoms: _526  and  _527
REMARK  214  A    between atoms: _526  and  _529
REMARK  215  A    between atoms: _529  and  _530
REMARK  216  A    between atoms: _533  and  _535
REMARK  217  A    between atoms: _535  and  _536
REMARK  218  A    between atoms: _535  and  _538
REMARK  219  A    between atoms: _538  and  _539
REMARK  220  A    between atoms: _542  and  _544
REMARK  221  A    between atoms: _544  and  _545
REMARK  222  A    between atoms: _547  and  _549
REMARK  223  A    between atoms: _549  and  _550
REMARK  224  A    between atoms: _549  and  _552
REMARK  225  A    between atoms: _552  and  _553
REMARK  226  A    between atoms: _553  and  _554
REMARK  227  A    between atoms: _554  and  _555
REMARK  228  A    between atoms: _564  and  _566
REMARK  229  A    between atoms: _566  and  _567
REMARK  230  A    between atoms: _566  and  _569
REMARK  231  A    between atoms: _569  and  _570
REMARK                            x       y       z     vdW  Elec       q    Type
REMARK                         _______ _______ _______ _____ _____    ______ ____
ROOT
ATOM      1  O   HOH     1      14.049  -3.261  24.594  0.00  0.00    +0.000 OA
ENDROOT
TORSDOF 0
REMARK  Name = ../refined-set-2016/2fgu/2fgu_pocket.pdb
REMARK  231 active torsions:
REMARK  status: ('A' for Active; 'I' for Inactive)
REMARK    1  A    between atoms: _1  and  _3
REMARK    2  A    between atoms: _3  and  _4
REMARK    3  A    between atoms: _3  and  _6
REMARK    4  A    between atoms: _6  and  _7
REMARK    5  A    between atoms: _7  and  _8
REMARK    6  A    between atoms: _8  and  _9
REMARK    7  A    between atoms: _18  and  _20
REMARK    8  A    between atoms: _20  and  _21
REMARK    9  A    between atoms: _20  and  _23
REMARK   10  A    between atoms: _23  and  _24
REMARK   11  A    between atoms: _27  and  _29
REMARK   12  A    between atoms: _29  and  _30
REMARK   13  A    between atoms: _29  and  _32
REMARK   14  A    between atoms: _32  and  _33
REMARK   15  A    between atoms: _36  and  _38
REMARK   16  A    between atoms: _38  and  _39
REMARK   17  A    between atoms: _38  and  _41
REMARK   18  A    between atoms: _41  and  _42
REMARK   19  A    between atoms: _45  and  _47
REMARK   20  A    between atoms: _47  and  _48
REMARK   21  A    between atoms: _47  and  _50
REMARK   22  A    between atoms: _50  and  _51
REMARK   23  A    between atoms: _54  and  _56
REMARK   24  A    between atoms: _56  and  _57
REMARK   25  A    between atoms: _59  and  _61
REMARK   26  A    between atoms: _61  and  _62
REMARK   27  A    between atoms: _65  and  _67
REMARK   28  A    between atoms: _67  and  _68
REMARK   29  A    between atoms: _67  and  _70
REMARK   30  A    between atoms: _70  and  _71
REMARK   31  A    between atoms: _74  and  _76
REMARK   32  A    between atoms: _76  and  _77
REMARK   33  A    between atoms: _76  and  _79
REMARK   34  A    between atoms: _79  and  _80
REMARK   35  A    between atoms: _83  and  _85
REMARK   36  A    between atoms: _85  and  _86
REMARK   37  A    between atoms: _85  and  _88
REMARK   38  A    between atoms: _88  and  _89
REMARK   39  A    between atoms: _92  and  _94
REMARK   40  A    between atoms: _94  and  _95
REMARK   41  A    between atoms: _94  and  _97
REMARK   42  A    between atoms: _100  and  _102
REMARK   43  A    between atoms: _102  and  _103
REMARK   44  A    between atoms: _102  and  _105
REMARK   45  A    between atoms: _105  and  _106
REMARK   46  A    between atoms: _106  and  _107
REMARK   47  A    between atoms: _107  and  _108
REMARK   48  A    between atoms: _108  and  _109
REMARK   49  A    between atoms: _113  and  _115
REMARK   50  A    between atoms: _115  and  _116
REMARK   51  A    between atoms: _115  and  _118
REMARK   52  A    between atoms: _118  and  _119
REMARK   53  A    between atoms: _119  and  _120
REMARK   54  A    between atoms: _122  and  _124
REMARK   55  A    between atoms: _124  and  _125
REMARK   56  A    between atoms: _124  and  _127
REMARK   57  A    between atoms: _127  and  _128
REMARK   58  A    between atoms: _131  and  _133
REMARK   59  A    between atoms: _133  and  _134
REMARK   60  A    between atoms: _136  and  _138
REMARK   61  A    between atoms: _138  and  _139
REMARK   62  A    between atoms: _141  and  _143
REMARK   63  A    between atoms: _143  and  _144
REMARK   64  A    between atoms: _143  and  _146
REMARK   65  A    between atoms: _146  and  _147
REMARK   66  A    between atoms: _150  and  _152
REMARK   67  A    between atoms: _152  and  _153
REMARK   68  A    between atoms: _155  and  _157
REMARK   69  A    between atoms: _157  and  _158
REMARK   70  A    between atoms: _160  and  _162
REMARK   71  A    between atoms: _162  and  _163
REMARK   72  A    between atoms: _162  and  _165
REMARK   73  A    between atoms: _165  and  _166
REMARK   74  A    between atoms: _172  and  _174
REMARK   75  A    between atoms: _174  and  _175
REMARK   76  A    between atoms: _174  and  _177
REMARK   77  A    between atoms: _177  and  _178
REMARK   78  A    between atoms: _181  and  _183
REMARK   79  A    between atoms: _183  and  _184
REMARK   80  A    between atoms: _183  and  _186
REMARK   81  A    between atoms: _189  and  _191
REMARK   82  A    between atoms: _191  and  _192
REMARK   83  A    between atoms: _191  and  _194
REMARK   84  A    between atoms: _194  and  _195
REMARK   85  A    between atoms: _199  and  _200
REMARK   86  A    between atoms: _205  and  _207
REMARK   87  A    between atoms: _207  and  _208
REMARK   88  A    between atoms: _207  and  _210
REMARK   89  A    between atoms: _210  and  _211
REMARK   90  A    between atoms: _214  and  _215
REMARK   91  A    between atoms: _220  and  _222
REMARK   92  A    between atoms: _222  and  _223
REMARK   93  A    between atoms: _222  and  _225
REMARK   94  A    between atoms: _228  and  _230
REMARK   95  A    between atoms: _230  and  _231
REMARK   96  A    between atoms: _230  and  _233
REMARK   97  A    between atoms: _233  and  _234
REMARK   98  A    between atoms: _239  and  _241
REMARK   99  A    between atoms: _241  and  _242
REMARK  100  A    between atoms: _241  and  _244
REMARK  101  A    between atoms: _244  and  _245
REMARK  102  A    between atoms: _248  and  _250
REMARK  103  A    between atoms: _250  and  _251
REMARK  104  A    between atoms: _250  and  _253
REMARK  105  A    between atoms: _253  and  _254
REMARK  106  A    between atoms: _257  and  _259
REMARK  107  A    between atoms: _259  and  _260
REMARK  108  A    between atoms: _262  and  _264
REMARK  109  A    between atoms: _264  and  _265
REMARK  110  A    between atoms: _264  and  _267
REMARK  111  A    between atoms: _267  and  _268
REMARK  112  A    between atoms: _268  and  _269
REMARK  113  A    between atoms: _269  and  _270
REMARK  114  A    between atoms: _279  and  _281
REMARK  115  A    between atoms: _281  and  _282
REMARK  116  A    between atoms: _281  and  _284
REMARK  117  A    between atoms: _284  and  _285
REMARK  118  A    between atoms: _290  and  _292
REMARK  119  A    between atoms: _292  and  _293
REMARK  120  A    between atoms: _292  and  _295
REMARK  121  A    between atoms: _295  and  _296
REMARK  122  A    between atoms: _296  and  _297
REMARK  123  A    between atoms: _297  and  _298
REMARK  124  A    between atoms: _307  and  _309
REMARK  125  A    between atoms: _309  and  _310
REMARK  126  A    between atoms: _309  and  _312
REMARK  127  A    between atoms: _312  and  _313
REMARK  128  A    between atoms: _316  and  _318
REMARK  129  A    between atoms: _318  and  _319
REMARK  130  A    between atoms: _318  and  _321
REMARK  131  A    between atoms: _321  and  _322
REMARK  132  A    between atoms: _325  and  _327
REMARK  133  A    between atoms: _327  and  _328
REMARK  134  A    between atoms: _327  and  _330
REMARK  135  A    between atoms: _330  and  _331
REMARK  136  A    between atoms: _334  and  _336
REMARK  137  A    between atoms: _336  and  _337
REMARK  138  A    between atoms: _336  and  _339
REMARK  139  A    between atoms: _339  and  _340
REMARK  140  A    between atoms: _343  and  _345
REMARK  141  A    between atoms: _345  and  _346
REMARK  142  A    between atoms: _348  and  _350
REMARK  143  A    between atoms: _350  and  _351
REMARK  144  A    between atoms: _354  and  _356
REMARK  145  A    between atoms: _356  and  _357
REMARK  146  A    between atoms: _356  and  _359
REMARK  147  A    between atoms: _359  and  _360
REMARK  148  A    between atoms: _363  and  _365
REMARK  149  A    between atoms: _365  and  _366
REMARK  150  A    between atoms: _365  and  _368
REMARK  151  A    between atoms: _368  and  _369
REMARK  152  A    between atoms: _372  and  _374
REMARK  153  A    between atoms: _374  and  _375
REMARK  154  A    between atoms: _374  and  _377
REMARK  155  A    between atoms: _377  and  _378
REMARK  156  A    between atoms: _381  and  _383
REMARK  157  A    between atoms: _383  and  _384
REMARK  158  A    between atoms: _383  and  _386
REMARK  159  A    between atoms: _389  and  _391
REMARK  160  A    between atoms: _391  and  _392
REMARK  161  A    between atoms: _391  and  _394
REMARK  162  A    between atoms: _394  and  _395
REMARK  163  A    between atoms: _398  and  _400
REMARK  164  A    between atoms: _400  and  _401
REMARK  165  A    between atoms: _400  and  _403
REMARK  166  A    between atoms: _403  and  _404
REMARK  167  A    between atoms: _404  and  _405
REMARK  168  A    between atoms: _407  and  _409
REMARK  169  A    between atoms: _409  and  _410
REMARK  170  A    between atoms: _409  and  _412
REMARK  171  A    between atoms: _412  and  _413
REMARK  172  A    between atoms: _416  and  _418
REMARK  173  A    between atoms: _418  and  _419
REMARK  174  A    between atoms: _421  and  _423
REMARK  175  A    between atoms: _423  and  _424
REMARK  176  A    between atoms: _426  and  _428
REMARK  177  A    between atoms: _428  and  _429
REMARK  178  A    between atoms: _428  and  _431
REMARK  179  A    between atoms: _431  and  _432
REMARK  180  A    between atoms: _435  and  _437
REMARK  181  A    between atoms: _437  and  _438
REMARK  182  A    between atoms: _440  and  _442
REMARK  183  A    between atoms: _442  and  _443
REMARK  184  A    between atoms: _445  and  _447
REMARK  185  A    between atoms: _447  and  _448
REMARK  186  A    between atoms: _447  and  _450
REMARK  187  A    between atoms: _450  and  _451
REMARK  188  A    between atoms: _457  and  _459
REMARK  189  A    between atoms: _459  and  _460
REMARK  190  A    between atoms: _459  and  _462
REMARK  191  A    between atoms: _462  and  _463
REMARK  192  A    between atoms: _466  and  _468
REMARK  193  A    between atoms: _468  and  _469
REMARK  194  A    between atoms: _468  and  _471
REMARK  195  A    between atoms: _474  and  _476
REMARK  196  A    between atoms: _476  and  _477
REMARK  197  A    between atoms: _476  and  _479
REMARK  198  A    between atoms: _479  and  _480
REMARK  199  A    between atoms: _484  and  _485
REMARK  200  A    between atoms: _490  and  _492
REMARK  201  A    between atoms: _492  and  _493
REMARK  202  A    between atoms: _492  and  _495
REMARK  203  A    between atoms: _495  and  _496
REMARK  204  A    between atoms: _499  and  _500
REMARK  205  A    between atoms: _505  and  _507
REMARK  206  A    between atoms: _507  and  _508
REMARK  207  A    between atoms: _507  and  _510
REMARK  208  A    between atoms: _513  and  _515
REMARK  209  A    between atoms: _515  and  _516
REMARK  210  A    between atoms: _515  and  _518
REMARK  211  A    between atoms: _518  and  _519
REMARK  212  A    between atoms: _524  and  _526
REMARK  213  A    between atoms: _526  and  _527
REMARK  214  A    between atoms: _526  and  _529
REMARK  215  A    between atoms: _529  and  _530
REMARK  216  A    between atoms: _533  and  _535
REMARK  217  A    between atoms: _535  and  _536
REMARK  218  A    between atoms: _535  and  _538
REMARK  219  A    between atoms: _538  and  _539
REMARK  220  A    between atoms: _542  and  _544
REMARK  221  A    between atoms: _544  and  _545
REMARK  222  A    between atoms: _547  and  _549
REMARK  223  A    between atoms: _549  and  _550
REMARK  224  A    between atoms: _549  and  _552
REMARK  225  A    between atoms: _552  and  _553
REMARK  226  A    between atoms: _553  and  _554
REMARK  227  A    between atoms: _554  and  _555
REMARK  228  A    between atoms: _564  and  _566
REMARK  229  A    between atoms: _566  and  _567
REMARK  230  A    between atoms: _566  and  _569
REMARK  231  A    between atoms: _569  and  _570
REMARK                            x       y       z     vdW  Elec       q    Type
REMARK                         _______ _______ _______ _____ _____    ______ ____
ROOT
ATOM      1  O   HOH     1      22.964   3.684  24.605  0.00  0.00    +0.000 OA
ENDROOT
TORSDOF 0
REMARK  Name = ../refined-set-2016/2fgu/2fgu_pocket.pdb
REMARK  231 active torsions:
REMARK  status: ('A' for Active; 'I' for Inactive)
REMARK    1  A    between atoms: _1  and  _3
REMARK    2  A    between atoms: _3  and  _4
REMARK    3  A    between atoms: _3  and  _6
REMARK    4  A    between atoms: _6  and  _7
REMARK    5  A    between atoms: _7  and  _8
REMARK    6  A    between atoms: _8  and  _9
REMARK    7  A    between atoms: _18  and  _20
REMARK    8  A    between atoms: _20  and  _21
REMARK    9  A    between atoms: _20  and  _23
REMARK   10  A    between atoms: _23  and  _24
REMARK   11  A    between atoms: _27  and  _29
REMARK   12  A    between atoms: _29  and  _30
REMARK   13  A    between atoms: _29  and  _32
REMARK   14  A    between atoms: _32  and  _33
REMARK   15  A    between atoms: _36  and  _38
REMARK   16  A    between atoms: _38  and  _39
REMARK   17  A    between atoms: _38  and  _41
REMARK   18  A    between atoms: _41  and  _42
REMARK   19  A    between atoms: _45  and  _47
REMARK   20  A    between atoms: _47  and  _48
REMARK   21  A    between atoms: _47  and  _50
REMARK   22  A    between atoms: _50  and  _51
REMARK   23  A    between atoms: _54  and  _56
REMARK   24  A    between atoms: _56  and  _57
REMARK   25  A    between atoms: _59  and  _61
REMARK   26  A    between atoms: _61  and  _62
REMARK   27  A    between atoms: _65  and  _67
REMARK   28  A    between atoms: _67  and  _68
REMARK   29  A    between atoms: _67  and  _70
REMARK   30  A    between atoms: _70  and  _71
REMARK   31  A    between atoms: _74  and  _76
REMARK   32  A    between atoms: _76  and  _77
REMARK   33  A    between atoms: _76  and  _79
REMARK   34  A    between atoms: _79  and  _80
REMARK   35  A    between atoms: _83  and  _85
REMARK   36  A    between atoms: _85  and  _86
REMARK   37  A    between atoms: _85  and  _88
REMARK   38  A    between atoms: _88  and  _89
REMARK   39  A    between atoms: _92  and  _94
REMARK   40  A    between atoms: _94  and  _95
REMARK   41  A    between atoms: _94  and  _97
REMARK   42  A    between atoms: _100  and  _102
REMARK   43  A    between atoms: _102  and  _103
REMARK   44  A    between atoms: _102  and  _105
REMARK   45  A    between atoms: _105  and  _106
REMARK   46  A    between atoms: _106  and  _107
REMARK   47  A    between atoms: _107  and  _108
REMARK   48  A    between atoms: _108  and  _109
REMARK   49  A    between atoms: _113  and  _115
REMARK   50  A    between atoms: _115  and  _116
REMARK   51  A    between atoms: _115  and  _118
REMARK   52  A    between atoms: _118  and  _119
REMARK   53  A    between atoms: _119  and  _120
REMARK   54  A    between atoms: _122  and  _124
REMARK   55  A    between atoms: _124  and  _125
REMARK   56  A    between atoms: _124  and  _127
REMARK   57  A    between atoms: _127  and  _128
REMARK   58  A    between atoms: _131  and  _133
REMARK   59  A    between atoms: _133  and  _134
REMARK   60  A    between atoms: _136  and  _138
REMARK   61  A    between atoms: _138  and  _139
REMARK   62  A    between atoms: _141  and  _143
REMARK   63  A    between atoms: _143  and  _144
REMARK   64  A    between atoms: _143  and  _146
REMARK   65  A    between atoms: _146  and  _147
REMARK   66  A    between atoms: _150  and  _152
REMARK   67  A    between atoms: _152  and  _153
REMARK   68  A    between atoms: _155  and  _157
REMARK   69  A    between atoms: _157  and  _158
REMARK   70  A    between atoms: _160  and  _162
REMARK   71  A    between atoms: _162  and  _163
REMARK   72  A    between atoms: _162  and  _165
REMARK   73  A    between atoms: _165  and  _166
REMARK   74  A    between atoms: _172  and  _174
REMARK   75  A    between atoms: _174  and  _175
REMARK   76  A    between atoms: _174  and  _177
REMARK   77  A    between atoms: _177  and  _178
REMARK   78  A    between atoms: _181  and  _183
REMARK   79  A    between atoms: _183  and  _184
REMARK   80  A    between atoms: _183  and  _186
REMARK   81  A    between atoms: _189  and  _191
REMARK   82  A    between atoms: _191  and  _192
REMARK   83  A    between atoms: _191  and  _194
REMARK   84  A    between atoms: _194  and  _195
REMARK   85  A    between atoms: _199  and  _200
REMARK   86  A    between atoms: _205  and  _207
REMARK   87  A    between atoms: _207  and  _208
REMARK   88  A    between atoms: _207  and  _210
REMARK   89  A    between atoms: _210  and  _211
REMARK   90  A    between atoms: _214  and  _215
REMARK   91  A    between atoms: _220  and  _222
REMARK   92  A    between atoms: _222  and  _223
REMARK   93  A    between atoms: _222  and  _225
REMARK   94  A    between atoms: _228  and  _230
REMARK   95  A    between atoms: _230  and  _231
REMARK   96  A    between atoms: _230  and  _233
REMARK   97  A    between atoms: _233  and  _234
REMARK   98  A    between atoms: _239  and  _241
REMARK   99  A    between atoms: _241  and  _242
REMARK  100  A    between atoms: _241  and  _244
REMARK  101  A    between atoms: _244  and  _245
REMARK  102  A    between atoms: _248  and  _250
REMARK  103  A    between atoms: _250  and  _251
REMARK  104  A    between atoms: _250  and  _253
REMARK  105  A    between atoms: _253  and  _254
REMARK  106  A    between atoms: _257  and  _259
REMARK  107  A    between atoms: _259  and  _260
REMARK  108  A    between atoms: _262  and  _264
REMARK  109  A    between atoms: _264  and  _265
REMARK  110  A    between atoms: _264  and  _267
REMARK  111  A    between atoms: _267  and  _268
REMARK  112  A    between atoms: _268  and  _269
REMARK  113  A    between atoms: _269  and  _270
REMARK  114  A    between atoms: _279  and  _281
REMARK  115  A    between atoms: _281  and  _282
REMARK  116  A    between atoms: _281  and  _284
REMARK  117  A    between atoms: _284  and  _285
REMARK  118  A    between atoms: _290  and  _292
REMARK  119  A    between atoms: _292  and  _293
REMARK  120  A    between atoms: _292  and  _295
REMARK  121  A    between atoms: _295  and  _296
REMARK  122  A    between atoms: _296  and  _297
REMARK  123  A    between atoms: _297  and  _298
REMARK  124  A    between atoms: _307  and  _309
REMARK  125  A    between atoms: _309  and  _310
REMARK  126  A    between atoms: _309  and  _312
REMARK  127  A    between atoms: _312  and  _313
REMARK  128  A    between atoms: _316  and  _318
REMARK  129  A    between atoms: _318  and  _319
REMARK  130  A    between atoms: _318  and  _321
REMARK  131  A    between atoms: _321  and  _322
REMARK  132  A    between atoms: _325  and  _327
REMARK  133  A    between atoms: _327  and  _328
REMARK  134  A    between atoms: _327  and  _330
REMARK  135  A    between atoms: _330  and  _331
REMARK  136  A    between atoms: _334  and  _336
REMARK  137  A    between atoms: _336  and  _337
REMARK  138  A    between atoms: _336  and  _339
REMARK  139  A    between atoms: _339  and  _340
REMARK  140  A    between atoms: _343  and  _345
REMARK  141  A    between atoms: _345  and  _346
REMARK  142  A    between atoms: _348  and  _350
REMARK  143  A    between atoms: _350  and  _351
REMARK  144  A    between atoms: _354  and  _356
REMARK  145  A    between atoms: _356  and  _357
REMARK  146  A    between atoms: _356  and  _359
REMARK  147  A    between atoms: _359  and  _360
REMARK  148  A    between atoms: _363  and  _365
REMARK  149  A    between atoms: _365  and  _366
REMARK  150  A    between atoms: _365  and  _368
REMARK  151  A    between atoms: _368  and  _369
REMARK  152  A    between atoms: _372  and  _374
REMARK  153  A    between atoms: _374  and  _375
REMARK  154  A    between atoms: _374  and  _377
REMARK  155  A    between atoms: _377  and  _378
REMARK  156  A    between atoms: _381  and  _383
REMARK  157  A    between atoms: _383  and  _384
REMARK  158  A    between atoms: _383  and  _386
REMARK  159  A    between atoms: _389  and  _391
REMARK  160  A    between atoms: _391  and  _392
REMARK  161  A    between atoms: _391  and  _394
REMARK  162  A    between atoms: _394  and  _395
REMARK  163  A    between atoms: _398  and  _400
REMARK  164  A    between atoms: _400  and  _401
REMARK  165  A    between atoms: _400  and  _403
REMARK  166  A    between atoms: _403  and  _404
REMARK  167  A    between atoms: _404  and  _405
REMARK  168  A    between atoms: _407  and  _409
REMARK  169  A    between atoms: _409  and  _410
REMARK  170  A    between atoms: _409  and  _412
REMARK  171  A    between atoms: _412  and  _413
REMARK  172  A    between atoms: _416  and  _418
REMARK  173  A    between atoms: _418  and  _419
REMARK  174  A    between atoms: _421  and  _423
REMARK  175  A    between atoms: _423  and  _424
REMARK  176  A    between atoms: _426  and  _428
REMARK  177  A    between atoms: _428  and  _429
REMARK  178  A    between atoms: _428  and  _431
REMARK  179  A    between atoms: _431  and  _432
REMARK  180  A    between atoms: _435  and  _437
REMARK  181  A    between atoms: _437  and  _438
REMARK  182  A    between atoms: _440  and  _442
REMARK  183  A    between atoms: _442  and  _443
REMARK  184  A    between atoms: _445  and  _447
REMARK  185  A    between atoms: _447  and  _448
REMARK  186  A    between atoms: _447  and  _450
REMARK  187  A    between atoms: _450  and  _451
REMARK  188  A    between atoms: _457  and  _459
REMARK  189  A    between atoms: _459  and  _460
REMARK  190  A    between atoms: _459  and  _462
REMARK  191  A    between atoms: _462  and  _463
REMARK  192  A    between atoms: _466  and  _468
REMARK  193  A    between atoms: _468  and  _469
REMARK  194  A    between atoms: _468  and  _471
REMARK  195  A    between atoms: _474  and  _476
REMARK  196  A    between atoms: _476  and  _477
REMARK  197  A    between atoms: _476  and  _479
REMARK  198  A    between atoms: _479  and  _480
REMARK  199  A    between atoms: _484  and  _485
REMARK  200  A    between atoms: _490  and  _492
REMARK  201  A    between atoms: _492  and  _493
REMARK  202  A    between atoms: _492  and  _495
REMARK  203  A    between atoms: _495  and  _496
REMARK  204  A    between atoms: _499  and  _500
REMARK  205  A    between atoms: _505  and  _507
REMARK  206  A    between atoms: _507  and  _508
REMARK  207  A    between atoms: _507  and  _510
REMARK  208  A    between atoms: _513  and  _515
REMARK  209  A    between atoms: _515  and  _516
REMARK  210  A    between atoms: _515  and  _518
REMARK  211  A    between atoms: _518  and  _519
REMARK  212  A    between atoms: _524  and  _526
REMARK  213  A    between atoms: _526  and  _527
REMARK  214  A    between atoms: _526  and  _529
REMARK  215  A    between atoms: _529  and  _530
REMARK  216  A    between atoms: _533  and  _535
REMARK  217  A    between atoms: _535  and  _536
REMARK  218  A    between atoms: _535  and  _538
REMARK  219  A    between atoms: _538  and  _539
REMARK  220  A    between atoms: _542  and  _544
REMARK  221  A    between atoms: _544  and  _545
REMARK  222  A    between atoms: _547  and  _549
REMARK  223  A    between atoms: _549  and  _550
REMARK  224  A    between atoms: _549  and  _552
REMARK  225  A    between atoms: _552  and  _553
REMARK  226  A    between atoms: _553  and  _554
REMARK  227  A    between atoms: _554  and  _555
REMARK  228  A    between atoms: _564  and  _566
REMARK  229  A    between atoms: _566  and  _567
REMARK  230  A    between atoms: _566  and  _569
REMARK  231  A    between atoms: _569  and  _570
REMARK                            x       y       z     vdW  Elec       q    Type
REMARK                         _______ _______ _______ _____ _____    ______ ____
ROOT
ATOM      1  O   HOH     1      28.548  -8.254   8.719  0.00  0.00    +0.000 OA
ENDROOT
TORSDOF 0
REMARK  Name = ../refined-set-2016/2fgu/2fgu_pocket.pdb
REMARK  231 active torsions:
REMARK  status: ('A' for Active; 'I' for Inactive)
REMARK    1  A    between atoms: _1  and  _3
REMARK    2  A    between atoms: _3  and  _4
REMARK    3  A    between atoms: _3  and  _6
REMARK    4  A    between atoms: _6  and  _7
REMARK    5  A    between atoms: _7  and  _8
REMARK    6  A    between atoms: _8  and  _9
REMARK    7  A    between atoms: _18  and  _20
REMARK    8  A    between atoms: _20  and  _21
REMARK    9  A    between atoms: _20  and  _23
REMARK   10  A    between atoms: _23  and  _24
REMARK   11  A    between atoms: _27  and  _29
REMARK   12  A    between atoms: _29  and  _30
REMARK   13  A    between atoms: _29  and  _32
REMARK   14  A    between atoms: _32  and  _33
REMARK   15  A    between atoms: _36  and  _38
REMARK   16  A    between atoms: _38  and  _39
REMARK   17  A    between atoms: _38  and  _41
REMARK   18  A    between atoms: _41  and  _42
REMARK   19  A    between atoms: _45  and  _47
REMARK   20  A    between atoms: _47  and  _48
REMARK   21  A    between atoms: _47  and  _50
REMARK   22  A    between atoms: _50  and  _51
REMARK   23  A    between atoms: _54  and  _56
REMARK   24  A    between atoms: _56  and  _57
REMARK   25  A    between atoms: _59  and  _61
REMARK   26  A    between atoms: _61  and  _62
REMARK   27  A    between atoms: _65  and  _67
REMARK   28  A    between atoms: _67  and  _68
REMARK   29  A    between atoms: _67  and  _70
REMARK   30  A    between atoms: _70  and  _71
REMARK   31  A    between atoms: _74  and  _76
REMARK   32  A    between atoms: _76  and  _77
REMARK   33  A    between atoms: _76  and  _79
REMARK   34  A    between atoms: _79  and  _80
REMARK   35  A    between atoms: _83  and  _85
REMARK   36  A    between atoms: _85  and  _86
REMARK   37  A    between atoms: _85  and  _88
REMARK   38  A    between atoms: _88  and  _89
REMARK   39  A    between atoms: _92  and  _94
REMARK   40  A    between atoms: _94  and  _95
REMARK   41  A    between atoms: _94  and  _97
REMARK   42  A    between atoms: _100  and  _102
REMARK   43  A    between atoms: _102  and  _103
REMARK   44  A    between atoms: _102  and  _105
REMARK   45  A    between atoms: _105  and  _106
REMARK   46  A    between atoms: _106  and  _107
REMARK   47  A    between atoms: _107  and  _108
REMARK   48  A    between atoms: _108  and  _109
REMARK   49  A    between atoms: _113  and  _115
REMARK   50  A    between atoms: _115  and  _116
REMARK   51  A    between atoms: _115  and  _118
REMARK   52  A    between atoms: _118  and  _119
REMARK   53  A    between atoms: _119  and  _120
REMARK   54  A    between atoms: _122  and  _124
REMARK   55  A    between atoms: _124  and  _125
REMARK   56  A    between atoms: _124  and  _127
REMARK   57  A    between atoms: _127  and  _128
REMARK   58  A    between atoms: _131  and  _133
REMARK   59  A    between atoms: _133  and  _134
REMARK   60  A    between atoms: _136  and  _138
REMARK   61  A    between atoms: _138  and  _139
REMARK   62  A    between atoms: _141  and  _143
REMARK   63  A    between atoms: _143  and  _144
REMARK   64  A    between atoms: _143  and  _146
REMARK   65  A    between atoms: _146  and  _147
REMARK   66  A    between atoms: _150  and  _152
REMARK   67  A    between atoms: _152  and  _153
REMARK   68  A    between atoms: _155  and  _157
REMARK   69  A    between atoms: _157  and  _158
REMARK   70  A    between atoms: _160  and  _162
REMARK   71  A    between atoms: _162  and  _163
REMARK   72  A    between atoms: _162  and  _165
REMARK   73  A    between atoms: _165  and  _166
REMARK   74  A    between atoms: _172  and  _174
REMARK   75  A    between atoms: _174  and  _175
REMARK   76  A    between atoms: _174  and  _177
REMARK   77  A    between atoms: _177  and  _178
REMARK   78  A    between atoms: _181  and  _183
REMARK   79  A    between atoms: _183  and  _184
REMARK   80  A    between atoms: _183  and  _186
REMARK   81  A    between atoms: _189  and  _191
REMARK   82  A    between atoms: _191  and  _192
REMARK   83  A    between atoms: _191  and  _194
REMARK   84  A    between atoms: _194  and  _195
REMARK   85  A    between atoms: _199  and  _200
REMARK   86  A    between atoms: _205  and  _207
REMARK   87  A    between atoms: _207  and  _208
REMARK   88  A    between atoms: _207  and  _210
REMARK   89  A    between atoms: _210  and  _211
REMARK   90  A    between atoms: _214  and  _215
REMARK   91  A    between atoms: _220  and  _222
REMARK   92  A    between atoms: _222  and  _223
REMARK   93  A    between atoms: _222  and  _225
REMARK   94  A    between atoms: _228  and  _230
REMARK   95  A    between atoms: _230  and  _231
REMARK   96  A    between atoms: _230  and  _233
REMARK   97  A    between atoms: _233  and  _234
REMARK   98  A    between atoms: _239  and  _241
REMARK   99  A    between atoms: _241  and  _242
REMARK  100  A    between atoms: _241  and  _244
REMARK  101  A    between atoms: _244  and  _245
REMARK  102  A    between atoms: _248  and  _250
REMARK  103  A    between atoms: _250  and  _251
REMARK  104  A    between atoms: _250  and  _253
REMARK  105  A    between atoms: _253  and  _254
REMARK  106  A    between atoms: _257  and  _259
REMARK  107  A    between atoms: _259  and  _260
REMARK  108  A    between atoms: _262  and  _264
REMARK  109  A    between atoms: _264  and  _265
REMARK  110  A    between atoms: _264  and  _267
REMARK  111  A    between atoms: _267  and  _268
REMARK  112  A    between atoms: _268  and  _269
REMARK  113  A    between atoms: _269  and  _270
REMARK  114  A    between atoms: _279  and  _281
REMARK  115  A    between atoms: _281  and  _282
REMARK  116  A    between atoms: _281  and  _284
REMARK  117  A    between atoms: _284  and  _285
REMARK  118  A    between atoms: _290  and  _292
REMARK  119  A    between atoms: _292  and  _293
REMARK  120  A    between atoms: _292  and  _295
REMARK  121  A    between atoms: _295  and  _296
REMARK  122  A    between atoms: _296  and  _297
REMARK  123  A    between atoms: _297  and  _298
REMARK  124  A    between atoms: _307  and  _309
REMARK  125  A    between atoms: _309  and  _310
REMARK  126  A    between atoms: _309  and  _312
REMARK  127  A    between atoms: _312  and  _313
REMARK  128  A    between atoms: _316  and  _318
REMARK  129  A    between atoms: _318  and  _319
REMARK  130  A    between atoms: _318  and  _321
REMARK  131  A    between atoms: _321  and  _322
REMARK  132  A    between atoms: _325  and  _327
REMARK  133  A    between atoms: _327  and  _328
REMARK  134  A    between atoms: _327  and  _330
REMARK  135  A    between atoms: _330  and  _331
REMARK  136  A    between atoms: _334  and  _336
REMARK  137  A    between atoms: _336  and  _337
REMARK  138  A    between atoms: _336  and  _339
REMARK  139  A    between atoms: _339  and  _340
REMARK  140  A    between atoms: _343  and  _345
REMARK  141  A    between atoms: _345  and  _346
REMARK  142  A    between atoms: _348  and  _350
REMARK  143  A    between atoms: _350  and  _351
REMARK  144  A    between atoms: _354  and  _356
REMARK  145  A    between atoms: _356  and  _357
REMARK  146  A    between atoms: _356  and  _359
REMARK  147  A    between atoms: _359  and  _360
REMARK  148  A    between atoms: _363  and  _365
REMARK  149  A    between atoms: _365  and  _366
REMARK  150  A    between atoms: _365  and  _368
REMARK  151  A    between atoms: _368  and  _369
REMARK  152  A    between atoms: _372  and  _374
REMARK  153  A    between atoms: _374  and  _375
REMARK  154  A    between atoms: _374  and  _377
REMARK  155  A    between atoms: _377  and  _378
REMARK  156  A    between atoms: _381  and  _383
REMARK  157  A    between atoms: _383  and  _384
REMARK  158  A    between atoms: _383  and  _386
REMARK  159  A    between atoms: _389  and  _391
REMARK  160  A    between atoms: _391  and  _392
REMARK  161  A    between atoms: _391  and  _394
REMARK  162  A    between atoms: _394  and  _395
REMARK  163  A    between atoms: _398  and  _400
REMARK  164  A    between atoms: _400  and  _401
REMARK  165  A    between atoms: _400  and  _403
REMARK  166  A    between atoms: _403  and  _404
REMARK  167  A    between atoms: _404  and  _405
REMARK  168  A    between atoms: _407  and  _409
REMARK  169  A    between atoms: _409  and  _410
REMARK  170  A    between atoms: _409  and  _412
REMARK  171  A    between atoms: _412  and  _413
REMARK  172  A    between atoms: _416  and  _418
REMARK  173  A    between atoms: _418  and  _419
REMARK  174  A    between atoms: _421  and  _423
REMARK  175  A    between atoms: _423  and  _424
REMARK  176  A    between atoms: _426  and  _428
REMARK  177  A    between atoms: _428  and  _429
REMARK  178  A    between atoms: _428  and  _431
REMARK  179  A    between atoms: _431  and  _432
REMARK  180  A    between atoms: _435  and  _437
REMARK  181  A    between atoms: _437  and  _438
REMARK  182  A    between atoms: _440  and  _442
REMARK  183  A    between atoms: _442  and  _443
REMARK  184  A    between atoms: _445  and  _447
REMARK  185  A    between atoms: _447  and  _448
REMARK  186  A    between atoms: _447  and  _450
REMARK  187  A    between atoms: _450  and  _451
REMARK  188  A    between atoms: _457  and  _459
REMARK  189  A    between atoms: _459  and  _460
REMARK  190  A    between atoms: _459  and  _462
REMARK  191  A    between atoms: _462  and  _463
REMARK  192  A    between atoms: _466  and  _468
REMARK  193  A    between atoms: _468  and  _469
REMARK  194  A    between atoms: _468  and  _471
REMARK  195  A    between atoms: _474  and  _476
REMARK  196  A    between atoms: _476  and  _477
REMARK  197  A    between atoms: _476  and  _479
REMARK  198  A    between atoms: _479  and  _480
REMARK  199  A    between atoms: _484  and  _485
REMARK  200  A    between atoms: _490  and  _492
REMARK  201  A    between atoms: _492  and  _493
REMARK  202  A    between atoms: _492  and  _495
REMARK  203  A    between atoms: _495  and  _496
REMARK  204  A    between atoms: _499  and  _500
REMARK  205  A    between atoms: _505  and  _507
REMARK  206  A    between atoms: _507  and  _508
REMARK  207  A    between atoms: _507  and  _510
REMARK  208  A    between atoms: _513  and  _515
REMARK  209  A    between atoms: _515  and  _516
REMARK  210  A    between atoms: _515  and  _518
REMARK  211  A    between atoms: _518  and  _519
REMARK  212  A    between atoms: _524  and  _526
REMARK  213  A    between atoms: _526  and  _527
REMARK  214  A    between atoms: _526  and  _529
REMARK  215  A    between atoms: _529  and  _530
REMARK  216  A    between atoms: _533  and  _535
REMARK  217  A    between atoms: _535  and  _536
REMARK  218  A    between atoms: _535  and  _538
REMARK  219  A    between atoms: _538  and  _539
REMARK  220  A    between atoms: _542  and  _544
REMARK  221  A    between atoms: _544  and  _545
REMARK  222  A    between atoms: _547  and  _549
REMARK  223  A    between atoms: _549  and  _550
REMARK  224  A    between atoms: _549  and  _552
REMARK  225  A    between atoms: _552  and  _553
REMARK  226  A    between atoms: _553  and  _554
REMARK  227  A    between atoms: _554  and  _555
REMARK  228  A    between atoms: _564  and  _566
REMARK  229  A    between atoms: _566  and  _567
REMARK  230  A    between atoms: _566  and  _569
REMARK  231  A    between atoms: _569  and  _570
REMARK                            x       y       z     vdW  Elec       q    Type
REMARK                         _______ _______ _______ _____ _____    ______ ____
ROOT
ATOM      1  O   HOH     1      15.812  -1.652  25.530  0.00  0.00    +0.000 OA
ENDROOT
TORSDOF 0
