REMARK  Name = ../refined-set-2016/2rkf/2rkf_pocket.pdb
REMARK  226 active torsions:
REMARK  status: ('A' for Active; 'I' for Inactive)
REMARK    1  A    between atoms: _1  and  _3
REMARK    2  A    between atoms: _3  and  _4
REMARK    3  A    between atoms: _3  and  _6
REMARK    4  A    between atoms: _6  and  _7
REMARK    5  A    between atoms: _7  and  _8
REMARK    6  A    between atoms: _8  and  _9
REMARK    7  A    between atoms: _18  and  _20
REMARK    8  A    between atoms: _20  and  _21
REMARK    9  A    between atoms: _20  and  _23
REMARK   10  A    between atoms: _23  and  _24
REMARK   11  A    between atoms: _30  and  _32
REMARK   12  A    between atoms: _32  and  _33
REMARK   13  A    between atoms: _32  and  _35
REMARK   14  A    between atoms: _35  and  _36
REMARK   15  A    between atoms: _39  and  _41
REMARK   16  A    between atoms: _41  and  _42
REMARK   17  A    between atoms: _41  and  _44
REMARK   18  A    between atoms: _44  and  _45
REMARK   19  A    between atoms: _48  and  _50
REMARK   20  A    between atoms: _50  and  _51
REMARK   21  A    between atoms: _50  and  _53
REMARK   22  A    between atoms: _53  and  _54
REMARK   23  A    between atoms: _57  and  _59
REMARK   24  A    between atoms: _59  and  _60
REMARK   25  A    between atoms: _59  and  _62
REMARK   26  A    between atoms: _62  and  _63
REMARK   27  A    between atoms: _66  and  _68
REMARK   28  A    between atoms: _68  and  _69
REMARK   29  A    between atoms: _71  and  _73
REMARK   30  A    between atoms: _73  and  _74
REMARK   31  A    between atoms: _77  and  _79
REMARK   32  A    between atoms: _79  and  _80
REMARK   33  A    between atoms: _79  and  _82
REMARK   34  A    between atoms: _82  and  _83
REMARK   35  A    between atoms: _86  and  _88
REMARK   36  A    between atoms: _88  and  _89
REMARK   37  A    between atoms: _88  and  _91
REMARK   38  A    between atoms: _91  and  _92
REMARK   39  A    between atoms: _95  and  _97
REMARK   40  A    between atoms: _97  and  _98
REMARK   41  A    between atoms: _97  and  _100
REMARK   42  A    between atoms: _100  and  _101
REMARK   43  A    between atoms: _104  and  _106
REMARK   44  A    between atoms: _106  and  _107
REMARK   45  A    between atoms: _106  and  _109
REMARK   46  A    between atoms: _109  and  _110
REMARK   47  A    between atoms: _113  and  _115
REMARK   48  A    between atoms: _115  and  _116
REMARK   49  A    between atoms: _115  and  _118
REMARK   50  A    between atoms: _118  and  _119
REMARK   51  A    between atoms: _122  and  _124
REMARK   52  A    between atoms: _124  and  _125
REMARK   53  A    between atoms: _124  and  _127
REMARK   54  A    between atoms: _127  and  _128
REMARK   55  A    between atoms: _128  and  _129
REMARK   56  A    between atoms: _129  and  _130
REMARK   57  A    between atoms: _130  and  _131
REMARK   58  A    between atoms: _135  and  _137
REMARK   59  A    between atoms: _137  and  _138
REMARK   60  A    between atoms: _137  and  _140
REMARK   61  A    between atoms: _143  and  _145
REMARK   62  A    between atoms: _145  and  _146
REMARK   63  A    between atoms: _145  and  _148
REMARK   64  A    between atoms: _151  and  _153
REMARK   65  A    between atoms: _153  and  _154
REMARK   66  A    between atoms: _156  and  _158
REMARK   67  A    between atoms: _158  and  _159
REMARK   68  A    between atoms: _161  and  _163
REMARK   69  A    between atoms: _163  and  _164
REMARK   70  A    between atoms: _163  and  _166
REMARK   71  A    between atoms: _166  and  _167
REMARK   72  A    between atoms: _170  and  _172
REMARK   73  A    between atoms: _172  and  _173
REMARK   74  A    between atoms: _175  and  _177
REMARK   75  A    between atoms: _177  and  _178
REMARK   76  A    between atoms: _180  and  _182
REMARK   77  A    between atoms: _182  and  _183
REMARK   78  A    between atoms: _182  and  _185
REMARK   79  A    between atoms: _185  and  _186
REMARK   80  A    between atoms: _186  and  _187
REMARK   81  A    between atoms: _189  and  _191
REMARK   82  A    between atoms: _191  and  _192
REMARK   83  A    between atoms: _191  and  _194
REMARK   84  A    between atoms: _194  and  _195
REMARK   85  A    between atoms: _198  and  _200
REMARK   86  A    between atoms: _200  and  _201
REMARK   87  A    between atoms: _200  and  _203
REMARK   88  A    between atoms: _203  and  _204
REMARK   89  A    between atoms: _208  and  _209
REMARK   90  A    between atoms: _214  and  _216
REMARK   91  A    between atoms: _216  and  _217
REMARK   92  A    between atoms: _220  and  _222
REMARK   93  A    between atoms: _222  and  _223
REMARK   94  A    between atoms: _222  and  _225
REMARK   95  A    between atoms: _225  and  _226
REMARK   96  A    between atoms: _231  and  _233
REMARK   97  A    between atoms: _233  and  _234
REMARK   98  A    between atoms: _233  and  _236
REMARK   99  A    between atoms: _236  and  _237
REMARK  100  A    between atoms: _240  and  _242
REMARK  101  A    between atoms: _242  and  _243
REMARK  102  A    between atoms: _242  and  _245
REMARK  103  A    between atoms: _245  and  _246
REMARK  104  A    between atoms: _249  and  _251
REMARK  105  A    between atoms: _251  and  _252
REMARK  106  A    between atoms: _254  and  _256
REMARK  107  A    between atoms: _256  and  _257
REMARK  108  A    between atoms: _256  and  _259
REMARK  109  A    between atoms: _259  and  _260
REMARK  110  A    between atoms: _260  and  _261
REMARK  111  A    between atoms: _261  and  _262
REMARK  112  A    between atoms: _271  and  _273
REMARK  113  A    between atoms: _273  and  _274
REMARK  114  A    between atoms: _273  and  _276
REMARK  115  A    between atoms: _276  and  _277
REMARK  116  A    between atoms: _282  and  _284
REMARK  117  A    between atoms: _284  and  _285
REMARK  118  A    between atoms: _284  and  _287
REMARK  119  A    between atoms: _287  and  _288
REMARK  120  A    between atoms: _288  and  _289
REMARK  121  A    between atoms: _289  and  _290
REMARK  122  A    between atoms: _299  and  _301
REMARK  123  A    between atoms: _301  and  _302
REMARK  124  A    between atoms: _301  and  _304
REMARK  125  A    between atoms: _304  and  _305
REMARK  126  A    between atoms: _311  and  _313
REMARK  127  A    between atoms: _313  and  _314
REMARK  128  A    between atoms: _313  and  _316
REMARK  129  A    between atoms: _316  and  _317
REMARK  130  A    between atoms: _320  and  _322
REMARK  131  A    between atoms: _322  and  _323
REMARK  132  A    between atoms: _322  and  _325
REMARK  133  A    between atoms: _325  and  _326
REMARK  134  A    between atoms: _329  and  _331
REMARK  135  A    between atoms: _331  and  _332
REMARK  136  A    between atoms: _331  and  _334
REMARK  137  A    between atoms: _334  and  _335
REMARK  138  A    between atoms: _338  and  _340
REMARK  139  A    between atoms: _340  and  _341
REMARK  140  A    between atoms: _340  and  _343
REMARK  141  A    between atoms: _343  and  _344
REMARK  142  A    between atoms: _347  and  _349
REMARK  143  A    between atoms: _349  and  _350
REMARK  144  A    between atoms: _352  and  _354
REMARK  145  A    between atoms: _354  and  _355
REMARK  146  A    between atoms: _358  and  _360
REMARK  147  A    between atoms: _360  and  _361
REMARK  148  A    between atoms: _360  and  _363
REMARK  149  A    between atoms: _363  and  _364
REMARK  150  A    between atoms: _367  and  _369
REMARK  151  A    between atoms: _369  and  _370
REMARK  152  A    between atoms: _369  and  _372
REMARK  153  A    between atoms: _372  and  _373
REMARK  154  A    between atoms: _376  and  _378
REMARK  155  A    between atoms: _378  and  _379
REMARK  156  A    between atoms: _378  and  _381
REMARK  157  A    between atoms: _381  and  _382
REMARK  158  A    between atoms: _385  and  _387
REMARK  159  A    between atoms: _387  and  _388
REMARK  160  A    between atoms: _387  and  _390
REMARK  161  A    between atoms: _390  and  _391
REMARK  162  A    between atoms: _394  and  _396
REMARK  163  A    between atoms: _396  and  _397
REMARK  164  A    between atoms: _396  and  _399
REMARK  165  A    between atoms: _399  and  _400
REMARK  166  A    between atoms: _400  and  _401
REMARK  167  A    between atoms: _401  and  _402
REMARK  168  A    between atoms: _402  and  _403
REMARK  169  A    between atoms: _407  and  _409
REMARK  170  A    between atoms: _409  and  _410
REMARK  171  A    between atoms: _409  and  _412
REMARK  172  A    between atoms: _415  and  _417
REMARK  173  A    between atoms: _417  and  _418
REMARK  174  A    between atoms: _417  and  _420
REMARK  175  A    between atoms: _423  and  _425
REMARK  176  A    between atoms: _425  and  _426
REMARK  177  A    between atoms: _428  and  _430
REMARK  178  A    between atoms: _430  and  _431
REMARK  179  A    between atoms: _433  and  _435
REMARK  180  A    between atoms: _435  and  _436
REMARK  181  A    between atoms: _435  and  _438
REMARK  182  A    between atoms: _438  and  _439
REMARK  183  A    between atoms: _442  and  _444
REMARK  184  A    between atoms: _444  and  _445
REMARK  185  A    between atoms: _447  and  _449
REMARK  186  A    between atoms: _449  and  _450
REMARK  187  A    between atoms: _452  and  _454
REMARK  188  A    between atoms: _454  and  _455
REMARK  189  A    between atoms: _454  and  _457
REMARK  190  A    between atoms: _457  and  _458
REMARK  191  A    between atoms: _458  and  _459
REMARK  192  A    between atoms: _461  and  _463
REMARK  193  A    between atoms: _463  and  _464
REMARK  194  A    between atoms: _463  and  _466
REMARK  195  A    between atoms: _466  and  _467
REMARK  196  A    between atoms: _470  and  _472
REMARK  197  A    between atoms: _472  and  _473
REMARK  198  A    between atoms: _472  and  _475
REMARK  199  A    between atoms: _475  and  _476
REMARK  200  A    between atoms: _480  and  _481
REMARK  201  A    between atoms: _486  and  _488
REMARK  202  A    between atoms: _488  and  _489
REMARK  203  A    between atoms: _492  and  _494
REMARK  204  A    between atoms: _494  and  _495
REMARK  205  A    between atoms: _494  and  _497
REMARK  206  A    between atoms: _497  and  _498
REMARK  207  A    between atoms: _503  and  _505
REMARK  208  A    between atoms: _505  and  _506
REMARK  209  A    between atoms: _505  and  _508
REMARK  210  A    between atoms: _508  and  _509
REMARK  211  A    between atoms: _512  and  _514
REMARK  212  A    between atoms: _514  and  _515
REMARK  213  A    between atoms: _514  and  _517
REMARK  214  A    between atoms: _517  and  _518
REMARK  215  A    between atoms: _521  and  _523
REMARK  216  A    between atoms: _523  and  _524
REMARK  217  A    between atoms: _526  and  _528
REMARK  218  A    between atoms: _528  and  _529
REMARK  219  A    between atoms: _528  and  _531
REMARK  220  A    between atoms: _531  and  _532
REMARK  221  A    between atoms: _532  and  _533
REMARK  222  A    between atoms: _533  and  _534
REMARK  223  A    between atoms: _543  and  _545
REMARK  224  A    between atoms: _545  and  _546
REMARK  225  A    between atoms: _545  and  _548
REMARK  226  A    between atoms: _548  and  _549
REMARK                            x       y       z     vdW  Elec       q    Type
REMARK                         _______ _______ _______ _____ _____    ______ ____
ROOT
ATOM      1  NE  ARG A   1     -22.579  10.299  -5.869  0.00  0.00    -0.265 N 
ATOM      2  CZ  ARG A   1     -21.560  10.973  -5.336  0.00  0.00    +0.342 C 
ATOM      3  NH2 ARG A   1     -20.671  10.357  -4.559  0.00  0.00    -0.292 N 
ATOM      4 HH21 ARG A   1     -19.880  10.893  -4.148  0.00  0.00    +0.255 HD
ATOM      5 HH22 ARG A   1     -20.768   9.340  -4.363  0.00  0.00    +0.255 HD
ATOM      6  NH1 ARG A   1     -21.438  12.274  -5.559  0.00  0.00    -0.292 N 
ATOM      7 HH11 ARG A   1     -20.643  12.801  -5.143  0.00  0.00    +0.255 HD
ATOM      8 HH12 ARG A   1     -22.137  12.768  -6.149  0.00  0.00    +0.255 HD
ATOM      9  HE  ARG A   1     -23.256  10.827  -6.457  0.00  0.00    +0.259 HD
ENDROOT
BRANCH   1  10
ATOM     10  CD  ARG A   1     -22.809   8.868  -5.683  0.00  0.00    +0.174 C 
BRANCH  10  11
ATOM     11  CG  ARG A   1     -24.204   8.455  -6.111  0.00  0.00    +0.045 C 
BRANCH  11  12
ATOM     12  CB  ARG A   1     -25.260   8.881  -5.077  0.00  0.00    +0.029 C 
BRANCH  12  13
ATOM     13  CA  ARG A   1     -26.661   8.346  -5.371  0.00  0.00    +0.133 C 
BRANCH  13  14
ATOM     14  N   ARG A   1     -27.147   8.822  -6.676  0.00  0.00    -0.239 NA
ATOM     15  H   ARG A   1     -26.575   9.487  -7.234  0.00  0.00    +0.142 HD
ENDBRANCH  13  14
BRANCH  13  16
ATOM     16  C   ARG A   1     -27.657   8.760  -4.288  0.00  0.00    +0.224 C 
ATOM     17  O   ARG A   1     -28.130   9.912  -4.298  0.00  0.00    -0.287 OA
ENDBRANCH  13  16
ENDBRANCH  12  13
ENDBRANCH  11  12
ENDBRANCH  10  11
ENDBRANCH   1  10
TORSDOF 6
REMARK  Name = ../refined-set-2016/2rkf/2rkf_pocket.pdb
REMARK  226 active torsions:
REMARK  status: ('A' for Active; 'I' for Inactive)
REMARK    1  A    between atoms: _1  and  _3
REMARK    2  A    between atoms: _3  and  _4
REMARK    3  A    between atoms: _3  and  _6
REMARK    4  A    between atoms: _6  and  _7
REMARK    5  A    between atoms: _7  and  _8
REMARK    6  A    between atoms: _8  and  _9
REMARK    7  A    between atoms: _18  and  _20
REMARK    8  A    between atoms: _20  and  _21
REMARK    9  A    between atoms: _20  and  _23
REMARK   10  A    between atoms: _23  and  _24
REMARK   11  A    between atoms: _30  and  _32
REMARK   12  A    between atoms: _32  and  _33
REMARK   13  A    between atoms: _32  and  _35
REMARK   14  A    between atoms: _35  and  _36
REMARK   15  A    between atoms: _39  and  _41
REMARK   16  A    between atoms: _41  and  _42
REMARK   17  A    between atoms: _41  and  _44
REMARK   18  A    between atoms: _44  and  _45
REMARK   19  A    between atoms: _48  and  _50
REMARK   20  A    between atoms: _50  and  _51
REMARK   21  A    between atoms: _50  and  _53
REMARK   22  A    between atoms: _53  and  _54
REMARK   23  A    between atoms: _57  and  _59
REMARK   24  A    between atoms: _59  and  _60
REMARK   25  A    between atoms: _59  and  _62
REMARK   26  A    between atoms: _62  and  _63
REMARK   27  A    between atoms: _66  and  _68
REMARK   28  A    between atoms: _68  and  _69
REMARK   29  A    between atoms: _71  and  _73
REMARK   30  A    between atoms: _73  and  _74
REMARK   31  A    between atoms: _77  and  _79
REMARK   32  A    between atoms: _79  and  _80
REMARK   33  A    between atoms: _79  and  _82
REMARK   34  A    between atoms: _82  and  _83
REMARK   35  A    between atoms: _86  and  _88
REMARK   36  A    between atoms: _88  and  _89
REMARK   37  A    between atoms: _88  and  _91
REMARK   38  A    between atoms: _91  and  _92
REMARK   39  A    between atoms: _95  and  _97
REMARK   40  A    between atoms: _97  and  _98
REMARK   41  A    between atoms: _97  and  _100
REMARK   42  A    between atoms: _100  and  _101
REMARK   43  A    between atoms: _104  and  _106
REMARK   44  A    between atoms: _106  and  _107
REMARK   45  A    between atoms: _106  and  _109
REMARK   46  A    between atoms: _109  and  _110
REMARK   47  A    between atoms: _113  and  _115
REMARK   48  A    between atoms: _115  and  _116
REMARK   49  A    between atoms: _115  and  _118
REMARK   50  A    between atoms: _118  and  _119
REMARK   51  A    between atoms: _122  and  _124
REMARK   52  A    between atoms: _124  and  _125
REMARK   53  A    between atoms: _124  and  _127
REMARK   54  A    between atoms: _127  and  _128
REMARK   55  A    between atoms: _128  and  _129
REMARK   56  A    between atoms: _129  and  _130
REMARK   57  A    between atoms: _130  and  _131
REMARK   58  A    between atoms: _135  and  _137
REMARK   59  A    between atoms: _137  and  _138
REMARK   60  A    between atoms: _137  and  _140
REMARK   61  A    between atoms: _143  and  _145
REMARK   62  A    between atoms: _145  and  _146
REMARK   63  A    between atoms: _145  and  _148
REMARK   64  A    between atoms: _151  and  _153
REMARK   65  A    between atoms: _153  and  _154
REMARK   66  A    between atoms: _156  and  _158
REMARK   67  A    between atoms: _158  and  _159
REMARK   68  A    between atoms: _161  and  _163
REMARK   69  A    between atoms: _163  and  _164
REMARK   70  A    between atoms: _163  and  _166
REMARK   71  A    between atoms: _166  and  _167
REMARK   72  A    between atoms: _170  and  _172
REMARK   73  A    between atoms: _172  and  _173
REMARK   74  A    between atoms: _175  and  _177
REMARK   75  A    between atoms: _177  and  _178
REMARK   76  A    between atoms: _180  and  _182
REMARK   77  A    between atoms: _182  and  _183
REMARK   78  A    between atoms: _182  and  _185
REMARK   79  A    between atoms: _185  and  _186
REMARK   80  A    between atoms: _186  and  _187
REMARK   81  A    between atoms: _189  and  _191
REMARK   82  A    between atoms: _191  and  _192
REMARK   83  A    between atoms: _191  and  _194
REMARK   84  A    between atoms: _194  and  _195
REMARK   85  A    between atoms: _198  and  _200
REMARK   86  A    between atoms: _200  and  _201
REMARK   87  A    between atoms: _200  and  _203
REMARK   88  A    between atoms: _203  and  _204
REMARK   89  A    between atoms: _208  and  _209
REMARK   90  A    between atoms: _214  and  _216
REMARK   91  A    between atoms: _216  and  _217
REMARK   92  A    between atoms: _220  and  _222
REMARK   93  A    between atoms: _222  and  _223
REMARK   94  A    between atoms: _222  and  _225
REMARK   95  A    between atoms: _225  and  _226
REMARK   96  A    between atoms: _231  and  _233
REMARK   97  A    between atoms: _233  and  _234
REMARK   98  A    between atoms: _233  and  _236
REMARK   99  A    between atoms: _236  and  _237
REMARK  100  A    between atoms: _240  and  _242
REMARK  101  A    between atoms: _242  and  _243
REMARK  102  A    between atoms: _242  and  _245
REMARK  103  A    between atoms: _245  and  _246
REMARK  104  A    between atoms: _249  and  _251
REMARK  105  A    between atoms: _251  and  _252
REMARK  106  A    between atoms: _254  and  _256
REMARK  107  A    between atoms: _256  and  _257
REMARK  108  A    between atoms: _256  and  _259
REMARK  109  A    between atoms: _259  and  _260
REMARK  110  A    between atoms: _260  and  _261
REMARK  111  A    between atoms: _261  and  _262
REMARK  112  A    between atoms: _271  and  _273
REMARK  113  A    between atoms: _273  and  _274
REMARK  114  A    between atoms: _273  and  _276
REMARK  115  A    between atoms: _276  and  _277
REMARK  116  A    between atoms: _282  and  _284
REMARK  117  A    between atoms: _284  and  _285
REMARK  118  A    between atoms: _284  and  _287
REMARK  119  A    between atoms: _287  and  _288
REMARK  120  A    between atoms: _288  and  _289
REMARK  121  A    between atoms: _289  and  _290
REMARK  122  A    between atoms: _299  and  _301
REMARK  123  A    between atoms: _301  and  _302
REMARK  124  A    between atoms: _301  and  _304
REMARK  125  A    between atoms: _304  and  _305
REMARK  126  A    between atoms: _311  and  _313
REMARK  127  A    between atoms: _313  and  _314
REMARK  128  A    between atoms: _313  and  _316
REMARK  129  A    between atoms: _316  and  _317
REMARK  130  A    between atoms: _320  and  _322
REMARK  131  A    between atoms: _322  and  _323
REMARK  132  A    between atoms: _322  and  _325
REMARK  133  A    between atoms: _325  and  _326
REMARK  134  A    between atoms: _329  and  _331
REMARK  135  A    between atoms: _331  and  _332
REMARK  136  A    between atoms: _331  and  _334
REMARK  137  A    between atoms: _334  and  _335
REMARK  138  A    between atoms: _338  and  _340
REMARK  139  A    between atoms: _340  and  _341
REMARK  140  A    between atoms: _340  and  _343
REMARK  141  A    between atoms: _343  and  _344
REMARK  142  A    between atoms: _347  and  _349
REMARK  143  A    between atoms: _349  and  _350
REMARK  144  A    between atoms: _352  and  _354
REMARK  145  A    between atoms: _354  and  _355
REMARK  146  A    between atoms: _358  and  _360
REMARK  147  A    between atoms: _360  and  _361
REMARK  148  A    between atoms: _360  and  _363
REMARK  149  A    between atoms: _363  and  _364
REMARK  150  A    between atoms: _367  and  _369
REMARK  151  A    between atoms: _369  and  _370
REMARK  152  A    between atoms: _369  and  _372
REMARK  153  A    between atoms: _372  and  _373
REMARK  154  A    between atoms: _376  and  _378
REMARK  155  A    between atoms: _378  and  _379
REMARK  156  A    between atoms: _378  and  _381
REMARK  157  A    between atoms: _381  and  _382
REMARK  158  A    between atoms: _385  and  _387
REMARK  159  A    between atoms: _387  and  _388
REMARK  160  A    between atoms: _387  and  _390
REMARK  161  A    between atoms: _390  and  _391
REMARK  162  A    between atoms: _394  and  _396
REMARK  163  A    between atoms: _396  and  _397
REMARK  164  A    between atoms: _396  and  _399
REMARK  165  A    between atoms: _399  and  _400
REMARK  166  A    between atoms: _400  and  _401
REMARK  167  A    between atoms: _401  and  _402
REMARK  168  A    between atoms: _402  and  _403
REMARK  169  A    between atoms: _407  and  _409
REMARK  170  A    between atoms: _409  and  _410
REMARK  171  A    between atoms: _409  and  _412
REMARK  172  A    between atoms: _415  and  _417
REMARK  173  A    between atoms: _417  and  _418
REMARK  174  A    between atoms: _417  and  _420
REMARK  175  A    between atoms: _423  and  _425
REMARK  176  A    between atoms: _425  and  _426
REMARK  177  A    between atoms: _428  and  _430
REMARK  178  A    between atoms: _430  and  _431
REMARK  179  A    between atoms: _433  and  _435
REMARK  180  A    between atoms: _435  and  _436
REMARK  181  A    between atoms: _435  and  _438
REMARK  182  A    between atoms: _438  and  _439
REMARK  183  A    between atoms: _442  and  _444
REMARK  184  A    between atoms: _444  and  _445
REMARK  185  A    between atoms: _447  and  _449
REMARK  186  A    between atoms: _449  and  _450
REMARK  187  A    between atoms: _452  and  _454
REMARK  188  A    between atoms: _454  and  _455
REMARK  189  A    between atoms: _454  and  _457
REMARK  190  A    between atoms: _457  and  _458
REMARK  191  A    between atoms: _458  and  _459
REMARK  192  A    between atoms: _461  and  _463
REMARK  193  A    between atoms: _463  and  _464
REMARK  194  A    between atoms: _463  and  _466
REMARK  195  A    between atoms: _466  and  _467
REMARK  196  A    between atoms: _470  and  _472
REMARK  197  A    between atoms: _472  and  _473
REMARK  198  A    between atoms: _472  and  _475
REMARK  199  A    between atoms: _475  and  _476
REMARK  200  A    between atoms: _480  and  _481
REMARK  201  A    between atoms: _486  and  _488
REMARK  202  A    between atoms: _488  and  _489
REMARK  203  A    between atoms: _492  and  _494
REMARK  204  A    between atoms: _494  and  _495
REMARK  205  A    between atoms: _494  and  _497
REMARK  206  A    between atoms: _497  and  _498
REMARK  207  A    between atoms: _503  and  _505
REMARK  208  A    between atoms: _505  and  _506
REMARK  209  A    between atoms: _505  and  _508
REMARK  210  A    between atoms: _508  and  _509
REMARK  211  A    between atoms: _512  and  _514
REMARK  212  A    between atoms: _514  and  _515
REMARK  213  A    between atoms: _514  and  _517
REMARK  214  A    between atoms: _517  and  _518
REMARK  215  A    between atoms: _521  and  _523
REMARK  216  A    between atoms: _523  and  _524
REMARK  217  A    between atoms: _526  and  _528
REMARK  218  A    between atoms: _528  and  _529
REMARK  219  A    between atoms: _528  and  _531
REMARK  220  A    between atoms: _531  and  _532
REMARK  221  A    between atoms: _532  and  _533
REMARK  222  A    between atoms: _533  and  _534
REMARK  223  A    between atoms: _543  and  _545
REMARK  224  A    between atoms: _545  and  _546
REMARK  225  A    between atoms: _545  and  _548
REMARK  226  A    between atoms: _548  and  _549
REMARK                            x       y       z     vdW  Elec       q    Type
REMARK                         _______ _______ _______ _____ _____    ______ ____
ROOT
ATOM      1  CB  PHE A   1     -26.980  12.188  -0.759  0.00  0.00    +0.051 C 
ENDROOT
BRANCH   1   2
ATOM      2  CG  PHE A   1     -25.570  11.874  -1.160  0.00  0.00    -0.020 A 
ATOM      3  CD2 PHE A   1     -24.597  11.645  -0.195  0.00  0.00    -0.004 A 
ATOM      4  CE2 PHE A   1     -23.287  11.348  -0.553  0.00  0.00    -0.000 A 
ATOM      5  CZ  PHE A   1     -22.949  11.260  -1.901  0.00  0.00    -0.000 A 
ATOM      6  CE1 PHE A   1     -23.916  11.491  -2.882  0.00  0.00    -0.000 A 
ATOM      7  CD1 PHE A   1     -25.220  11.791  -2.512  0.00  0.00    -0.004 A 
ENDBRANCH   1   2
BRANCH   1   8
ATOM      8  CA  PHE A   1     -27.752  10.976  -0.208  0.00  0.00    +0.137 C 
BRANCH   8   9
ATOM      9  N   PHE A   1     -28.243  10.142  -1.299  0.00  0.00    -0.239 NA
ATOM     10  H   PHE A   1     -28.444  10.565  -2.227  0.00  0.00    +0.142 HD
ENDBRANCH   8   9
BRANCH   8  11
ATOM     11  C   PHE A   1     -28.894  11.475   0.671  0.00  0.00    +0.224 C 
ATOM     12  O   PHE A   1     -29.990  11.794   0.172  0.00  0.00    -0.287 OA
ENDBRANCH   8  11
ENDBRANCH   1   8
TORSDOF 4
REMARK  Name = ../refined-set-2016/2rkf/2rkf_pocket.pdb
REMARK  226 active torsions:
REMARK  status: ('A' for Active; 'I' for Inactive)
REMARK    1  A    between atoms: _1  and  _3
REMARK    2  A    between atoms: _3  and  _4
REMARK    3  A    between atoms: _3  and  _6
REMARK    4  A    between atoms: _6  and  _7
REMARK    5  A    between atoms: _7  and  _8
REMARK    6  A    between atoms: _8  and  _9
REMARK    7  A    between atoms: _18  and  _20
REMARK    8  A    between atoms: _20  and  _21
REMARK    9  A    between atoms: _20  and  _23
REMARK   10  A    between atoms: _23  and  _24
REMARK   11  A    between atoms: _30  and  _32
REMARK   12  A    between atoms: _32  and  _33
REMARK   13  A    between atoms: _32  and  _35
REMARK   14  A    between atoms: _35  and  _36
REMARK   15  A    between atoms: _39  and  _41
REMARK   16  A    between atoms: _41  and  _42
REMARK   17  A    between atoms: _41  and  _44
REMARK   18  A    between atoms: _44  and  _45
REMARK   19  A    between atoms: _48  and  _50
REMARK   20  A    between atoms: _50  and  _51
REMARK   21  A    between atoms: _50  and  _53
REMARK   22  A    between atoms: _53  and  _54
REMARK   23  A    between atoms: _57  and  _59
REMARK   24  A    between atoms: _59  and  _60
REMARK   25  A    between atoms: _59  and  _62
REMARK   26  A    between atoms: _62  and  _63
REMARK   27  A    between atoms: _66  and  _68
REMARK   28  A    between atoms: _68  and  _69
REMARK   29  A    between atoms: _71  and  _73
REMARK   30  A    between atoms: _73  and  _74
REMARK   31  A    between atoms: _77  and  _79
REMARK   32  A    between atoms: _79  and  _80
REMARK   33  A    between atoms: _79  and  _82
REMARK   34  A    between atoms: _82  and  _83
REMARK   35  A    between atoms: _86  and  _88
REMARK   36  A    between atoms: _88  and  _89
REMARK   37  A    between atoms: _88  and  _91
REMARK   38  A    between atoms: _91  and  _92
REMARK   39  A    between atoms: _95  and  _97
REMARK   40  A    between atoms: _97  and  _98
REMARK   41  A    between atoms: _97  and  _100
REMARK   42  A    between atoms: _100  and  _101
REMARK   43  A    between atoms: _104  and  _106
REMARK   44  A    between atoms: _106  and  _107
REMARK   45  A    between atoms: _106  and  _109
REMARK   46  A    between atoms: _109  and  _110
REMARK   47  A    between atoms: _113  and  _115
REMARK   48  A    between atoms: _115  and  _116
REMARK   49  A    between atoms: _115  and  _118
REMARK   50  A    between atoms: _118  and  _119
REMARK   51  A    between atoms: _122  and  _124
REMARK   52  A    between atoms: _124  and  _125
REMARK   53  A    between atoms: _124  and  _127
REMARK   54  A    between atoms: _127  and  _128
REMARK   55  A    between atoms: _128  and  _129
REMARK   56  A    between atoms: _129  and  _130
REMARK   57  A    between atoms: _130  and  _131
REMARK   58  A    between atoms: _135  and  _137
REMARK   59  A    between atoms: _137  and  _138
REMARK   60  A    between atoms: _137  and  _140
REMARK   61  A    between atoms: _143  and  _145
REMARK   62  A    between atoms: _145  and  _146
REMARK   63  A    between atoms: _145  and  _148
REMARK   64  A    between atoms: _151  and  _153
REMARK   65  A    between atoms: _153  and  _154
REMARK   66  A    between atoms: _156  and  _158
REMARK   67  A    between atoms: _158  and  _159
REMARK   68  A    between atoms: _161  and  _163
REMARK   69  A    between atoms: _163  and  _164
REMARK   70  A    between atoms: _163  and  _166
REMARK   71  A    between atoms: _166  and  _167
REMARK   72  A    between atoms: _170  and  _172
REMARK   73  A    between atoms: _172  and  _173
REMARK   74  A    between atoms: _175  and  _177
REMARK   75  A    between atoms: _177  and  _178
REMARK   76  A    between atoms: _180  and  _182
REMARK   77  A    between atoms: _182  and  _183
REMARK   78  A    between atoms: _182  and  _185
REMARK   79  A    between atoms: _185  and  _186
REMARK   80  A    between atoms: _186  and  _187
REMARK   81  A    between atoms: _189  and  _191
REMARK   82  A    between atoms: _191  and  _192
REMARK   83  A    between atoms: _191  and  _194
REMARK   84  A    between atoms: _194  and  _195
REMARK   85  A    between atoms: _198  and  _200
REMARK   86  A    between atoms: _200  and  _201
REMARK   87  A    between atoms: _200  and  _203
REMARK   88  A    between atoms: _203  and  _204
REMARK   89  A    between atoms: _208  and  _209
REMARK   90  A    between atoms: _214  and  _216
REMARK   91  A    between atoms: _216  and  _217
REMARK   92  A    between atoms: _220  and  _222
REMARK   93  A    between atoms: _222  and  _223
REMARK   94  A    between atoms: _222  and  _225
REMARK   95  A    between atoms: _225  and  _226
REMARK   96  A    between atoms: _231  and  _233
REMARK   97  A    between atoms: _233  and  _234
REMARK   98  A    between atoms: _233  and  _236
REMARK   99  A    between atoms: _236  and  _237
REMARK  100  A    between atoms: _240  and  _242
REMARK  101  A    between atoms: _242  and  _243
REMARK  102  A    between atoms: _242  and  _245
REMARK  103  A    between atoms: _245  and  _246
REMARK  104  A    between atoms: _249  and  _251
REMARK  105  A    between atoms: _251  and  _252
REMARK  106  A    between atoms: _254  and  _256
REMARK  107  A    between atoms: _256  and  _257
REMARK  108  A    between atoms: _256  and  _259
REMARK  109  A    between atoms: _259  and  _260
REMARK  110  A    between atoms: _260  and  _261
REMARK  111  A    between atoms: _261  and  _262
REMARK  112  A    between atoms: _271  and  _273
REMARK  113  A    between atoms: _273  and  _274
REMARK  114  A    between atoms: _273  and  _276
REMARK  115  A    between atoms: _276  and  _277
REMARK  116  A    between atoms: _282  and  _284
REMARK  117  A    between atoms: _284  and  _285
REMARK  118  A    between atoms: _284  and  _287
REMARK  119  A    between atoms: _287  and  _288
REMARK  120  A    between atoms: _288  and  _289
REMARK  121  A    between atoms: _289  and  _290
REMARK  122  A    between atoms: _299  and  _301
REMARK  123  A    between atoms: _301  and  _302
REMARK  124  A    between atoms: _301  and  _304
REMARK  125  A    between atoms: _304  and  _305
REMARK  126  A    between atoms: _311  and  _313
REMARK  127  A    between atoms: _313  and  _314
REMARK  128  A    between atoms: _313  and  _316
REMARK  129  A    between atoms: _316  and  _317
REMARK  130  A    between atoms: _320  and  _322
REMARK  131  A    between atoms: _322  and  _323
REMARK  132  A    between atoms: _322  and  _325
REMARK  133  A    between atoms: _325  and  _326
REMARK  134  A    between atoms: _329  and  _331
REMARK  135  A    between atoms: _331  and  _332
REMARK  136  A    between atoms: _331  and  _334
REMARK  137  A    between atoms: _334  and  _335
REMARK  138  A    between atoms: _338  and  _340
REMARK  139  A    between atoms: _340  and  _341
REMARK  140  A    between atoms: _340  and  _343
REMARK  141  A    between atoms: _343  and  _344
REMARK  142  A    between atoms: _347  and  _349
REMARK  143  A    between atoms: _349  and  _350
REMARK  144  A    between atoms: _352  and  _354
REMARK  145  A    between atoms: _354  and  _355
REMARK  146  A    between atoms: _358  and  _360
REMARK  147  A    between atoms: _360  and  _361
REMARK  148  A    between atoms: _360  and  _363
REMARK  149  A    between atoms: _363  and  _364
REMARK  150  A    between atoms: _367  and  _369
REMARK  151  A    between atoms: _369  and  _370
REMARK  152  A    between atoms: _369  and  _372
REMARK  153  A    between atoms: _372  and  _373
REMARK  154  A    between atoms: _376  and  _378
REMARK  155  A    between atoms: _378  and  _379
REMARK  156  A    between atoms: _378  and  _381
REMARK  157  A    between atoms: _381  and  _382
REMARK  158  A    between atoms: _385  and  _387
REMARK  159  A    between atoms: _387  and  _388
REMARK  160  A    between atoms: _387  and  _390
REMARK  161  A    between atoms: _390  and  _391
REMARK  162  A    between atoms: _394  and  _396
REMARK  163  A    between atoms: _396  and  _397
REMARK  164  A    between atoms: _396  and  _399
REMARK  165  A    between atoms: _399  and  _400
REMARK  166  A    between atoms: _400  and  _401
REMARK  167  A    between atoms: _401  and  _402
REMARK  168  A    between atoms: _402  and  _403
REMARK  169  A    between atoms: _407  and  _409
REMARK  170  A    between atoms: _409  and  _410
REMARK  171  A    between atoms: _409  and  _412
REMARK  172  A    between atoms: _415  and  _417
REMARK  173  A    between atoms: _417  and  _418
REMARK  174  A    between atoms: _417  and  _420
REMARK  175  A    between atoms: _423  and  _425
REMARK  176  A    between atoms: _425  and  _426
REMARK  177  A    between atoms: _428  and  _430
REMARK  178  A    between atoms: _430  and  _431
REMARK  179  A    between atoms: _433  and  _435
REMARK  180  A    between atoms: _435  and  _436
REMARK  181  A    between atoms: _435  and  _438
REMARK  182  A    between atoms: _438  and  _439
REMARK  183  A    between atoms: _442  and  _444
REMARK  184  A    between atoms: _444  and  _445
REMARK  185  A    between atoms: _447  and  _449
REMARK  186  A    between atoms: _449  and  _450
REMARK  187  A    between atoms: _452  and  _454
REMARK  188  A    between atoms: _454  and  _455
REMARK  189  A    between atoms: _454  and  _457
REMARK  190  A    between atoms: _457  and  _458
REMARK  191  A    between atoms: _458  and  _459
REMARK  192  A    between atoms: _461  and  _463
REMARK  193  A    between atoms: _463  and  _464
REMARK  194  A    between atoms: _463  and  _466
REMARK  195  A    between atoms: _466  and  _467
REMARK  196  A    between atoms: _470  and  _472
REMARK  197  A    between atoms: _472  and  _473
REMARK  198  A    between atoms: _472  and  _475
REMARK  199  A    between atoms: _475  and  _476
REMARK  200  A    between atoms: _480  and  _481
REMARK  201  A    between atoms: _486  and  _488
REMARK  202  A    between atoms: _488  and  _489
REMARK  203  A    between atoms: _492  and  _494
REMARK  204  A    between atoms: _494  and  _495
REMARK  205  A    between atoms: _494  and  _497
REMARK  206  A    between atoms: _497  and  _498
REMARK  207  A    between atoms: _503  and  _505
REMARK  208  A    between atoms: _505  and  _506
REMARK  209  A    between atoms: _505  and  _508
REMARK  210  A    between atoms: _508  and  _509
REMARK  211  A    between atoms: _512  and  _514
REMARK  212  A    between atoms: _514  and  _515
REMARK  213  A    between atoms: _514  and  _517
REMARK  214  A    between atoms: _517  and  _518
REMARK  215  A    between atoms: _521  and  _523
REMARK  216  A    between atoms: _523  and  _524
REMARK  217  A    between atoms: _526  and  _528
REMARK  218  A    between atoms: _528  and  _529
REMARK  219  A    between atoms: _528  and  _531
REMARK  220  A    between atoms: _531  and  _532
REMARK  221  A    between atoms: _532  and  _533
REMARK  222  A    between atoms: _533  and  _534
REMARK  223  A    between atoms: _543  and  _545
REMARK  224  A    between atoms: _545  and  _546
REMARK  225  A    between atoms: _545  and  _548
REMARK  226  A    between atoms: _548  and  _549
REMARK                            x       y       z     vdW  Elec       q    Type
REMARK                         _______ _______ _______ _____ _____    ______ ____
ROOT
ATOM      1  C   ALA A   6     -22.830  -1.740   5.811  0.00  0.00    +0.241 C 
ATOM      2  N   ASP A   7     -22.051  -2.501   6.587  0.00  0.00    -0.297 N 
ATOM      3  H   ASP A   7     -21.094  -2.739   6.257  0.00  0.00    +0.150 HD
ATOM      4  O   ALA A   6     -23.992  -1.471   6.104  0.00  0.00    -0.273 OA
ENDROOT
BRANCH   1   5
ATOM      5  CA  ALA A   6     -22.224  -1.227   4.496  0.00  0.00    +0.149 C 
ATOM      6  CB  ALA A   6     -22.069   0.324   4.538  0.00  0.00    +0.031 C 
BRANCH   5   8
ATOM      7  C   GLY A   5     -22.772  -2.485   2.465  0.00  0.00    +0.243 C 
ATOM      8  N   ALA A   6     -23.096  -1.588   3.397  0.00  0.00    -0.297 N 
ATOM      9  H   ALA A   6     -24.024  -1.123   3.331  0.00  0.00    +0.150 HD
ATOM     10  O   GLY A   5     -21.716  -3.096   2.463  0.00  0.00    -0.273 OA
BRANCH   7  11
ATOM     11  CA  GLY A   5     -23.777  -2.734   1.353  0.00  0.00    +0.176 C 
BRANCH  11  14
ATOM     12  C   THR A   4     -26.003  -2.166   2.133  0.00  0.00    +0.243 C 
ATOM     13  O   THR A   4     -26.071  -3.216   2.754  0.00  0.00    -0.273 OA
ATOM     14  N   GLY A   5     -24.938  -1.850   1.385  0.00  0.00    -0.295 N 
ATOM     15  H   GLY A   5     -24.938  -0.973   0.826  0.00  0.00    +0.150 HD
BRANCH  12  16
ATOM     16  CA  THR A   4     -27.176  -1.168   2.171  0.00  0.00    +0.176 C 
BRANCH  16  19
ATOM     17  C   ASP A   3     -25.985   0.925   2.476  0.00  0.00    +0.241 C 
ATOM     18  O   ASP A   3     -25.486   0.557   3.547  0.00  0.00    -0.273 OA
ATOM     19  N   THR A   4     -26.791   0.175   1.747  0.00  0.00    -0.295 N 
ATOM     20  H   THR A   4     -27.160   0.550   0.850  0.00  0.00    +0.150 HD
BRANCH  17  21
ATOM     21  CA  ASP A   3     -25.657   2.279   1.887  0.00  0.00    +0.160 C 
BRANCH  21  23
ATOM     22  C   LEU A   2     -27.146   4.208   1.771  0.00  0.00    +0.241 C 
ATOM     23  N   ASP A   3     -26.490   3.310   2.501  0.00  0.00    -0.297 N 
ATOM     24  H   ASP A   3     -26.572   3.343   3.537  0.00  0.00    +0.150 HD
ATOM     25  O   LEU A   2     -27.307   4.087   0.559  0.00  0.00    -0.273 OA
BRANCH  22  26
ATOM     26  CA  LEU A   2     -27.691   5.438   2.513  0.00  0.00    +0.149 C 
BRANCH  26  29
ATOM     27  C   LEU A   1     -25.690   6.824   2.274  0.00  0.00    +0.238 C 
ATOM     28  O   LEU A   1     -25.101   6.225   3.194  0.00  0.00    -0.274 OA
ATOM     29  N   LEU A   2     -26.960   6.584   1.953  0.00  0.00    -0.297 N 
ATOM     30  H   LEU A   2     -27.446   7.222   1.291  0.00  0.00    +0.150 HD
BRANCH  27  31
ATOM     31  CA  LEU A   1     -24.951   7.910   1.445  0.00  0.00    +0.145 C 
BRANCH  31  32
ATOM     32  N   LEU A   1     -24.337   8.869   2.318  0.00  0.00    -0.238 NA
ATOM     33  H   LEU A   1     -23.331   8.756   2.555  0.00  0.00    +0.142 HD
ENDBRANCH  31  32
BRANCH  31  34
ATOM     34  CB  LEU A   1     -23.812   7.317   0.606  0.00  0.00    +0.026 C 
BRANCH  34  35
ATOM     35  CG  LEU A   1     -23.926   6.369  -0.567  0.00  0.00    +0.002 C 
ATOM     36  CD2 LEU A   1     -22.520   5.913  -0.932  0.00  0.00    +0.000 C 
ATOM     37  CD1 LEU A   1     -24.557   7.069  -1.738  0.00  0.00    +0.000 C 
ENDBRANCH  34  35
ENDBRANCH  31  34
ENDBRANCH  27  31
ENDBRANCH  26  29
BRANCH  26  38
ATOM     38  CB  LEU A   2     -29.195   5.548   2.252  0.00  0.00    +0.029 C 
BRANCH  38  39
ATOM     39  CG  LEU A   2     -29.974   6.753   2.790  0.00  0.00    +0.002 C 
ATOM     40  CD2 LEU A   2     -29.969   6.712   4.302  0.00  0.00    +0.000 C 
ATOM     41  CD1 LEU A   2     -31.413   6.718   2.251  0.00  0.00    +0.000 C 
ENDBRANCH  38  39
ENDBRANCH  26  38
ENDBRANCH  22  26
ENDBRANCH  21  23
BRANCH  21  42
ATOM     42  CB  ASP A   3     -24.188   2.581   2.123  0.00  0.00    +0.143 C 
BRANCH  42  43
ATOM     43  CG  ASP A   3     -23.270   1.627   1.401  0.00  0.00    +0.367 C 
ATOM     44  OD2 ASP A   3     -22.055   1.844   1.489  0.00  0.00    -0.246 OA
ATOM     45  OD1 ASP A   3     -23.736   0.683   0.729  0.00  0.00    -0.246 OA
ENDBRANCH  42  43
ENDBRANCH  21  42
ENDBRANCH  17  21
ENDBRANCH  16  19
BRANCH  16  46
ATOM     46  CB  THR A   4     -28.335  -1.686   1.332  0.00  0.00    +0.137 C 
ATOM     47  CG2 THR A   4     -29.534  -0.759   1.462  0.00  0.00    +0.034 C 
BRANCH  46  48
ATOM     48  OG1 THR A   4     -27.951  -1.708  -0.052  0.00  0.00    -0.382 OA
ATOM     49  HG1 THR A   4     -27.168  -2.303  -0.167  0.00  0.00    +0.210 HD
ENDBRANCH  46  48
ENDBRANCH  16  46
ENDBRANCH  12  16
ENDBRANCH  11  14
ENDBRANCH   7  11
ENDBRANCH   5   8
ENDBRANCH   1   5
BRANCH   2  50
ATOM     50  CA  ASP A   7     -22.500  -3.011   7.887  0.00  0.00    +0.160 C 
BRANCH  50  51
ATOM     51  C   ASP A   7     -22.550  -1.849   8.893  0.00  0.00    +0.241 C 
ATOM     52  O   ASP A   7     -23.408  -1.826   9.806  0.00  0.00    -0.273 OA
ATOM     53  N   ASP A   8     -21.608  -0.921   8.720  0.00  0.00    -0.297 N 
ATOM     54  H   ASP A   8     -21.049  -0.946   7.843  0.00  0.00    +0.150 HD
BRANCH  53  55
ATOM     55  CA  ASP A   8     -21.317   0.131   9.696  0.00  0.00    +0.160 C 
BRANCH  55  56
ATOM     56  C   ASP A   8     -21.418   1.502   9.071  0.00  0.00    +0.241 C 
ATOM     57  N   THR A   9     -21.450   2.519   9.933  0.00  0.00    -0.295 N 
ATOM     58  H   THR A   9     -21.378   2.320  10.951  0.00  0.00    +0.150 HD
ATOM     59  O   ASP A   8     -21.399   1.640   7.849  0.00  0.00    -0.273 OA
BRANCH  57  60
ATOM     60  CA  THR A   9     -21.583   3.897   9.493  0.00  0.00    +0.176 C 
BRANCH  60  61
ATOM     61  C   THR A   9     -20.218   4.552   9.645  0.00  0.00    +0.243 C 
ATOM     62  O   THR A   9     -19.555   4.370  10.673  0.00  0.00    -0.273 OA
ATOM     63  N   ILE A  10     -19.772   5.241   8.605  0.00  0.00    -0.297 N 
ATOM     64  H   ILE A  10     -20.386   5.358   7.774  0.00  0.00    +0.150 HD
BRANCH  63  65
ATOM     65  CA  ILE A  10     -18.431   5.845   8.595  0.00  0.00    +0.149 C 
BRANCH  65  66
ATOM     66  C   ILE A  10     -18.551   7.277   8.125  0.00  0.00    +0.241 C 
ATOM     67  N   LEU A  11     -17.978   8.182   8.906  0.00  0.00    -0.298 N 
ATOM     68  H   LEU A  11     -17.468   7.869   9.757  0.00  0.00    +0.150 HD
ATOM     69  O   ILE A  10     -19.125   7.552   7.064  0.00  0.00    -0.273 OA
BRANCH  67  70
ATOM     70  CA  LEU A  11     -18.046   9.591   8.603  0.00  0.00    +0.137 C 
BRANCH  70  71
ATOM     71  C   LEU A  11     -16.668  10.178   8.484  0.00  0.00    +0.227 C 
ATOM     72  O   LEU A  11     -15.721   9.714   9.135  0.00  0.00    -0.286 OA
ENDBRANCH  70  71
BRANCH  70  73
ATOM     73  CB  LEU A  11     -18.818  10.346   9.690  0.00  0.00    +0.028 C 
BRANCH  73  74
ATOM     74  CG  LEU A  11     -20.276   9.906   9.863  0.00  0.00    +0.002 C 
ATOM     75  CD2 LEU A  11     -20.860  10.680  11.029  0.00  0.00    +0.000 C 
ATOM     76  CD1 LEU A  11     -21.082  10.118   8.591  0.00  0.00    +0.000 C 
ENDBRANCH  73  74
ENDBRANCH  70  73
ENDBRANCH  67  70
ENDBRANCH  65  66
BRANCH  65  77
ATOM     77  CB  ILE A  10     -17.403   5.140   7.686  0.00  0.00    +0.027 C 
ATOM     78  CG2 ILE A  10     -15.973   5.743   7.926  0.00  0.00    +0.002 C 
BRANCH  77  79
ATOM     79  CG1 ILE A  10     -17.368   3.633   7.907  0.00  0.00    +0.002 C 
ATOM     80  CD1 ILE A  10     -16.242   2.926   7.127  0.00  0.00    +0.000 C 
ENDBRANCH  77  79
ENDBRANCH  65  77
ENDBRANCH  63  65
ENDBRANCH  60  61
BRANCH  60  81
ATOM     81  CB  THR A   9     -22.671   4.595  10.355  0.00  0.00    +0.137 C 
ATOM     82  CG2 THR A   9     -22.705   6.116  10.138  0.00  0.00    +0.034 C 
BRANCH  81  83
ATOM     83  OG1 THR A   9     -23.949   4.024  10.031  0.00  0.00    -0.382 OA
ATOM     84  HG1 THR A   9     -23.935   3.054  10.227  0.00  0.00    +0.210 HD
ENDBRANCH  81  83
ENDBRANCH  60  81
ENDBRANCH  57  60
ENDBRANCH  55  56
BRANCH  55  85
ATOM     85  CB  ASP A   8     -19.883  -0.011  10.234  0.00  0.00    +0.143 C 
BRANCH  85  86
ATOM     86  CG  ASP A   8     -19.616  -1.367  10.875  0.00  0.00    +0.367 C 
ATOM     87  OD2 ASP A   8     -20.538  -1.929  11.522  0.00  0.00    -0.246 OA
ATOM     88  OD1 ASP A   8     -18.465  -1.864  10.746  0.00  0.00    -0.246 OA
ENDBRANCH  85  86
ENDBRANCH  55  85
ENDBRANCH  53  55
ENDBRANCH  50  51
BRANCH  50  89
ATOM     89  CB  ASP A   7     -21.504  -4.031   8.438  0.00  0.00    +0.143 C 
BRANCH  89  90
ATOM     90  CG  ASP A   7     -21.368  -5.288   7.585  0.00  0.00    +0.367 C 
ATOM     91  OD2 ASP A   7     -20.345  -6.000   7.767  0.00  0.00    -0.246 OA
ATOM     92  OD1 ASP A   7     -22.258  -5.625   6.764  0.00  0.00    -0.246 OA
ENDBRANCH  89  90
ENDBRANCH  50  89
ENDBRANCH   2  50
TORSDOF 40
REMARK  Name = ../refined-set-2016/2rkf/2rkf_pocket.pdb
REMARK  226 active torsions:
REMARK  status: ('A' for Active; 'I' for Inactive)
REMARK    1  A    between atoms: _1  and  _3
REMARK    2  A    between atoms: _3  and  _4
REMARK    3  A    between atoms: _3  and  _6
REMARK    4  A    between atoms: _6  and  _7
REMARK    5  A    between atoms: _7  and  _8
REMARK    6  A    between atoms: _8  and  _9
REMARK    7  A    between atoms: _18  and  _20
REMARK    8  A    between atoms: _20  and  _21
REMARK    9  A    between atoms: _20  and  _23
REMARK   10  A    between atoms: _23  and  _24
REMARK   11  A    between atoms: _30  and  _32
REMARK   12  A    between atoms: _32  and  _33
REMARK   13  A    between atoms: _32  and  _35
REMARK   14  A    between atoms: _35  and  _36
REMARK   15  A    between atoms: _39  and  _41
REMARK   16  A    between atoms: _41  and  _42
REMARK   17  A    between atoms: _41  and  _44
REMARK   18  A    between atoms: _44  and  _45
REMARK   19  A    between atoms: _48  and  _50
REMARK   20  A    between atoms: _50  and  _51
REMARK   21  A    between atoms: _50  and  _53
REMARK   22  A    between atoms: _53  and  _54
REMARK   23  A    between atoms: _57  and  _59
REMARK   24  A    between atoms: _59  and  _60
REMARK   25  A    between atoms: _59  and  _62
REMARK   26  A    between atoms: _62  and  _63
REMARK   27  A    between atoms: _66  and  _68
REMARK   28  A    between atoms: _68  and  _69
REMARK   29  A    between atoms: _71  and  _73
REMARK   30  A    between atoms: _73  and  _74
REMARK   31  A    between atoms: _77  and  _79
REMARK   32  A    between atoms: _79  and  _80
REMARK   33  A    between atoms: _79  and  _82
REMARK   34  A    between atoms: _82  and  _83
REMARK   35  A    between atoms: _86  and  _88
REMARK   36  A    between atoms: _88  and  _89
REMARK   37  A    between atoms: _88  and  _91
REMARK   38  A    between atoms: _91  and  _92
REMARK   39  A    between atoms: _95  and  _97
REMARK   40  A    between atoms: _97  and  _98
REMARK   41  A    between atoms: _97  and  _100
REMARK   42  A    between atoms: _100  and  _101
REMARK   43  A    between atoms: _104  and  _106
REMARK   44  A    between atoms: _106  and  _107
REMARK   45  A    between atoms: _106  and  _109
REMARK   46  A    between atoms: _109  and  _110
REMARK   47  A    between atoms: _113  and  _115
REMARK   48  A    between atoms: _115  and  _116
REMARK   49  A    between atoms: _115  and  _118
REMARK   50  A    between atoms: _118  and  _119
REMARK   51  A    between atoms: _122  and  _124
REMARK   52  A    between atoms: _124  and  _125
REMARK   53  A    between atoms: _124  and  _127
REMARK   54  A    between atoms: _127  and  _128
REMARK   55  A    between atoms: _128  and  _129
REMARK   56  A    between atoms: _129  and  _130
REMARK   57  A    between atoms: _130  and  _131
REMARK   58  A    between atoms: _135  and  _137
REMARK   59  A    between atoms: _137  and  _138
REMARK   60  A    between atoms: _137  and  _140
REMARK   61  A    between atoms: _143  and  _145
REMARK   62  A    between atoms: _145  and  _146
REMARK   63  A    between atoms: _145  and  _148
REMARK   64  A    between atoms: _151  and  _153
REMARK   65  A    between atoms: _153  and  _154
REMARK   66  A    between atoms: _156  and  _158
REMARK   67  A    between atoms: _158  and  _159
REMARK   68  A    between atoms: _161  and  _163
REMARK   69  A    between atoms: _163  and  _164
REMARK   70  A    between atoms: _163  and  _166
REMARK   71  A    between atoms: _166  and  _167
REMARK   72  A    between atoms: _170  and  _172
REMARK   73  A    between atoms: _172  and  _173
REMARK   74  A    between atoms: _175  and  _177
REMARK   75  A    between atoms: _177  and  _178
REMARK   76  A    between atoms: _180  and  _182
REMARK   77  A    between atoms: _182  and  _183
REMARK   78  A    between atoms: _182  and  _185
REMARK   79  A    between atoms: _185  and  _186
REMARK   80  A    between atoms: _186  and  _187
REMARK   81  A    between atoms: _189  and  _191
REMARK   82  A    between atoms: _191  and  _192
REMARK   83  A    between atoms: _191  and  _194
REMARK   84  A    between atoms: _194  and  _195
REMARK   85  A    between atoms: _198  and  _200
REMARK   86  A    between atoms: _200  and  _201
REMARK   87  A    between atoms: _200  and  _203
REMARK   88  A    between atoms: _203  and  _204
REMARK   89  A    between atoms: _208  and  _209
REMARK   90  A    between atoms: _214  and  _216
REMARK   91  A    between atoms: _216  and  _217
REMARK   92  A    between atoms: _220  and  _222
REMARK   93  A    between atoms: _222  and  _223
REMARK   94  A    between atoms: _222  and  _225
REMARK   95  A    between atoms: _225  and  _226
REMARK   96  A    between atoms: _231  and  _233
REMARK   97  A    between atoms: _233  and  _234
REMARK   98  A    between atoms: _233  and  _236
REMARK   99  A    between atoms: _236  and  _237
REMARK  100  A    between atoms: _240  and  _242
REMARK  101  A    between atoms: _242  and  _243
REMARK  102  A    between atoms: _242  and  _245
REMARK  103  A    between atoms: _245  and  _246
REMARK  104  A    between atoms: _249  and  _251
REMARK  105  A    between atoms: _251  and  _252
REMARK  106  A    between atoms: _254  and  _256
REMARK  107  A    between atoms: _256  and  _257
REMARK  108  A    between atoms: _256  and  _259
REMARK  109  A    between atoms: _259  and  _260
REMARK  110  A    between atoms: _260  and  _261
REMARK  111  A    between atoms: _261  and  _262
REMARK  112  A    between atoms: _271  and  _273
REMARK  113  A    between atoms: _273  and  _274
REMARK  114  A    between atoms: _273  and  _276
REMARK  115  A    between atoms: _276  and  _277
REMARK  116  A    between atoms: _282  and  _284
REMARK  117  A    between atoms: _284  and  _285
REMARK  118  A    between atoms: _284  and  _287
REMARK  119  A    between atoms: _287  and  _288
REMARK  120  A    between atoms: _288  and  _289
REMARK  121  A    between atoms: _289  and  _290
REMARK  122  A    between atoms: _299  and  _301
REMARK  123  A    between atoms: _301  and  _302
REMARK  124  A    between atoms: _301  and  _304
REMARK  125  A    between atoms: _304  and  _305
REMARK  126  A    between atoms: _311  and  _313
REMARK  127  A    between atoms: _313  and  _314
REMARK  128  A    between atoms: _313  and  _316
REMARK  129  A    between atoms: _316  and  _317
REMARK  130  A    between atoms: _320  and  _322
REMARK  131  A    between atoms: _322  and  _323
REMARK  132  A    between atoms: _322  and  _325
REMARK  133  A    between atoms: _325  and  _326
REMARK  134  A    between atoms: _329  and  _331
REMARK  135  A    between atoms: _331  and  _332
REMARK  136  A    between atoms: _331  and  _334
REMARK  137  A    between atoms: _334  and  _335
REMARK  138  A    between atoms: _338  and  _340
REMARK  139  A    between atoms: _340  and  _341
REMARK  140  A    between atoms: _340  and  _343
REMARK  141  A    between atoms: _343  and  _344
REMARK  142  A    between atoms: _347  and  _349
REMARK  143  A    between atoms: _349  and  _350
REMARK  144  A    between atoms: _352  and  _354
REMARK  145  A    between atoms: _354  and  _355
REMARK  146  A    between atoms: _358  and  _360
REMARK  147  A    between atoms: _360  and  _361
REMARK  148  A    between atoms: _360  and  _363
REMARK  149  A    between atoms: _363  and  _364
REMARK  150  A    between atoms: _367  and  _369
REMARK  151  A    between atoms: _369  and  _370
REMARK  152  A    between atoms: _369  and  _372
REMARK  153  A    between atoms: _372  and  _373
REMARK  154  A    between atoms: _376  and  _378
REMARK  155  A    between atoms: _378  and  _379
REMARK  156  A    between atoms: _378  and  _381
REMARK  157  A    between atoms: _381  and  _382
REMARK  158  A    between atoms: _385  and  _387
REMARK  159  A    between atoms: _387  and  _388
REMARK  160  A    between atoms: _387  and  _390
REMARK  161  A    between atoms: _390  and  _391
REMARK  162  A    between atoms: _394  and  _396
REMARK  163  A    between atoms: _396  and  _397
REMARK  164  A    between atoms: _396  and  _399
REMARK  165  A    between atoms: _399  and  _400
REMARK  166  A    between atoms: _400  and  _401
REMARK  167  A    between atoms: _401  and  _402
REMARK  168  A    between atoms: _402  and  _403
REMARK  169  A    between atoms: _407  and  _409
REMARK  170  A    between atoms: _409  and  _410
REMARK  171  A    between atoms: _409  and  _412
REMARK  172  A    between atoms: _415  and  _417
REMARK  173  A    between atoms: _417  and  _418
REMARK  174  A    between atoms: _417  and  _420
REMARK  175  A    between atoms: _423  and  _425
REMARK  176  A    between atoms: _425  and  _426
REMARK  177  A    between atoms: _428  and  _430
REMARK  178  A    between atoms: _430  and  _431
REMARK  179  A    between atoms: _433  and  _435
REMARK  180  A    between atoms: _435  and  _436
REMARK  181  A    between atoms: _435  and  _438
REMARK  182  A    between atoms: _438  and  _439
REMARK  183  A    between atoms: _442  and  _444
REMARK  184  A    between atoms: _444  and  _445
REMARK  185  A    between atoms: _447  and  _449
REMARK  186  A    between atoms: _449  and  _450
REMARK  187  A    between atoms: _452  and  _454
REMARK  188  A    between atoms: _454  and  _455
REMARK  189  A    between atoms: _454  and  _457
REMARK  190  A    between atoms: _457  and  _458
REMARK  191  A    between atoms: _458  and  _459
REMARK  192  A    between atoms: _461  and  _463
REMARK  193  A    between atoms: _463  and  _464
REMARK  194  A    between atoms: _463  and  _466
REMARK  195  A    between atoms: _466  and  _467
REMARK  196  A    between atoms: _470  and  _472
REMARK  197  A    between atoms: _472  and  _473
REMARK  198  A    between atoms: _472  and  _475
REMARK  199  A    between atoms: _475  and  _476
REMARK  200  A    between atoms: _480  and  _481
REMARK  201  A    between atoms: _486  and  _488
REMARK  202  A    between atoms: _488  and  _489
REMARK  203  A    between atoms: _492  and  _494
REMARK  204  A    between atoms: _494  and  _495
REMARK  205  A    between atoms: _494  and  _497
REMARK  206  A    between atoms: _497  and  _498
REMARK  207  A    between atoms: _503  and  _505
REMARK  208  A    between atoms: _505  and  _506
REMARK  209  A    between atoms: _505  and  _508
REMARK  210  A    between atoms: _508  and  _509
REMARK  211  A    between atoms: _512  and  _514
REMARK  212  A    between atoms: _514  and  _515
REMARK  213  A    between atoms: _514  and  _517
REMARK  214  A    between atoms: _517  and  _518
REMARK  215  A    between atoms: _521  and  _523
REMARK  216  A    between atoms: _523  and  _524
REMARK  217  A    between atoms: _526  and  _528
REMARK  218  A    between atoms: _528  and  _529
REMARK  219  A    between atoms: _528  and  _531
REMARK  220  A    between atoms: _531  and  _532
REMARK  221  A    between atoms: _532  and  _533
REMARK  222  A    between atoms: _533  and  _534
REMARK  223  A    between atoms: _543  and  _545
REMARK  224  A    between atoms: _545  and  _546
REMARK  225  A    between atoms: _545  and  _548
REMARK  226  A    between atoms: _548  and  _549
REMARK                            x       y       z     vdW  Elec       q    Type
REMARK                         _______ _______ _______ _____ _____    ______ ____
ROOT
ATOM      1  C   VAL A   3     -11.991  -1.669   6.835  0.00  0.00    +0.241 C 
ATOM      2  O   VAL A   3     -11.135  -0.964   6.297  0.00  0.00    -0.273 OA
ATOM      3  N   GLY A   4     -12.506  -2.752   6.262  0.00  0.00    -0.295 N 
ATOM      4  H   GLY A   4     -13.234  -3.297   6.767  0.00  0.00    +0.150 HD
ENDROOT
BRANCH   3   5
ATOM      5  CA  GLY A   4     -12.072  -3.196   4.935  0.00  0.00    +0.176 C 
BRANCH   5   6
ATOM      6  C   GLY A   4     -13.068  -2.836   3.855  0.00  0.00    +0.243 C 
ATOM      7  O   GLY A   4     -14.258  -3.116   3.973  0.00  0.00    -0.273 OA
ATOM      8  N   GLY A   5     -12.595  -2.188   2.804  0.00  0.00    -0.295 N 
ATOM      9  H   GLY A   5     -11.609  -1.858   2.804  0.00  0.00    +0.150 HD
BRANCH   8  10
ATOM     10  CA  GLY A   5     -13.436  -1.932   1.651  0.00  0.00    +0.176 C 
BRANCH  10  11
ATOM     11  C   GLY A   5     -12.900  -2.603   0.408  0.00  0.00    +0.243 C 
ATOM     12  O   GLY A   5     -12.126  -3.559   0.484  0.00  0.00    -0.273 OA
ATOM     13  N   ILE A   6     -13.288  -2.070  -0.743  0.00  0.00    -0.297 N 
ATOM     14  H   ILE A   6     -13.890  -1.222  -0.729  0.00  0.00    +0.150 HD
BRANCH  13  15
ATOM     15  CA  ILE A   6     -12.896  -2.637  -2.023  0.00  0.00    +0.149 C 
BRANCH  15  16
ATOM     16  C   ILE A   6     -11.413  -2.559  -2.370  0.00  0.00    +0.241 C 
ATOM     17  N   GLY A   7     -10.744  -1.523  -1.877  0.00  0.00    -0.295 N 
ATOM     18  H   GLY A   7     -11.234  -0.843  -1.261  0.00  0.00    +0.150 HD
ATOM     19  O   ILE A   6     -10.887  -3.430  -3.075  0.00  0.00    -0.273 OA
BRANCH  17  20
ATOM     20  CA  GLY A   7      -9.326  -1.325  -2.188  0.00  0.00    +0.176 C 
BRANCH  20  21
ATOM     21  C   GLY A   7      -8.339  -1.669  -1.085  0.00  0.00    +0.243 C 
ATOM     22  N   GLY A   8      -8.833  -2.182   0.038  0.00  0.00    -0.296 N 
ATOM     23  H   GLY A   8      -9.853  -2.375   0.102  0.00  0.00    +0.150 HD
ATOM     24  O   GLY A   7      -7.136  -1.475  -1.252  0.00  0.00    -0.273 OA
BRANCH  22  25
ATOM     25  CA  GLY A   8      -7.980  -2.480   1.181  0.00  0.00    +0.163 C 
BRANCH  25  26
ATOM     26  C   GLY A   8      -8.624  -2.028   2.472  0.00  0.00    +0.229 C 
ATOM     27  O   GLY A   8      -9.857  -1.953   2.562  0.00  0.00    -0.286 OA
ENDBRANCH  25  26
ENDBRANCH  22  25
ENDBRANCH  20  21
ENDBRANCH  17  20
ENDBRANCH  15  16
BRANCH  15  28
ATOM     28  CB  ILE A   6     -13.802  -2.142  -3.168  0.00  0.00    +0.027 C 
ATOM     29  CG2 ILE A   6     -13.010  -1.442  -4.273  0.00  0.00    +0.002 C 
BRANCH  28  30
ATOM     30  CG1 ILE A   6     -14.510  -3.348  -3.774  0.00  0.00    +0.002 C 
ATOM     31  CD1 ILE A   6     -15.973  -3.259  -3.710  0.00  0.00    +0.000 C 
ENDBRANCH  28  30
ENDBRANCH  15  28
ENDBRANCH  13  15
ENDBRANCH  10  11
ENDBRANCH   8  10
ENDBRANCH   5   6
ENDBRANCH   3   5
BRANCH   1  32
ATOM     32  CA  VAL A   3     -12.525  -1.314   8.216  0.00  0.00    +0.149 C 
BRANCH  32  35
ATOM     33  C   VAL A   2     -11.055  -1.493  10.181  0.00  0.00    +0.241 C 
ATOM     34  O   VAL A   2     -11.614  -2.507  10.594  0.00  0.00    -0.273 OA
ATOM     35  N   VAL A   3     -11.436  -0.846   9.084  0.00  0.00    -0.297 N 
ATOM     36  H   VAL A   3     -10.940   0.032   8.828  0.00  0.00    +0.150 HD
BRANCH  33  37
ATOM     37  CA  VAL A   2      -9.881  -0.892  10.948  0.00  0.00    +0.148 C 
BRANCH  37  40
ATOM     38  C   LYS A   1     -10.154   0.192  13.121  0.00  0.00    +0.238 C 
ATOM     39  O   LYS A   1      -9.702   1.271  12.722  0.00  0.00    -0.274 OA
ATOM     40  N   VAL A   2     -10.198  -0.904  12.371  0.00  0.00    -0.297 N 
ATOM     41  H   VAL A   2     -10.469  -1.804  12.816  0.00  0.00    +0.150 HD
BRANCH  38  42
ATOM     42  CA  LYS A   1     -10.668   0.045  14.546  0.00  0.00    +0.145 C 
BRANCH  42  43
ATOM     43  N   LYS A   1     -10.061   1.106  15.338  0.00  0.00    -0.238 NA
ATOM     44  H   LYS A   1      -9.806   1.997  14.867  0.00  0.00    +0.142 HD
ENDBRANCH  42  43
BRANCH  42  45
ATOM     45  CB  LYS A   1     -12.203   0.148  14.583  0.00  0.00    +0.026 C 
BRANCH  45  46
ATOM     46  CG  LYS A   1     -12.954  -1.075  14.032  0.00  0.00    -0.000 C 
BRANCH  46  47
ATOM     47  CD  LYS A   1     -14.469  -0.851  14.014  0.00  0.00    -0.024 C 
BRANCH  47  48
ATOM     48  CE  LYS A   1     -15.221  -1.912  13.195  0.00  0.00    -0.086 C 
BRANCH  48  49
ATOM     49  NZ  LYS A   1     -15.238  -3.269  13.835  0.00  0.00    +0.380 N 
ATOM     50  HZ1 LYS A   1     -15.703  -3.207  14.763  0.00  0.00    -0.089 HD
ATOM     51  HZ2 LYS A   1     -14.262  -3.606  13.956  0.00  0.00    -0.089 HD
ATOM     52  HZ3 LYS A   1     -15.761  -3.931  13.227  0.00  0.00    -0.089 HD
ENDBRANCH  48  49
ENDBRANCH  47  48
ENDBRANCH  46  47
ENDBRANCH  45  46
ENDBRANCH  42  45
ENDBRANCH  38  42
ENDBRANCH  37  40
BRANCH  37  53
ATOM     53  CB  VAL A   2      -8.557  -1.660  10.628  0.00  0.00    +0.027 C 
ATOM     54  CG2 VAL A   2      -7.365  -0.950  11.246  0.00  0.00    +0.002 C 
ATOM     55  CG1 VAL A   2      -8.622  -3.068  11.133  0.00  0.00    +0.002 C 
ENDBRANCH  37  53
ENDBRANCH  33  37
ENDBRANCH  32  35
BRANCH  32  56
ATOM     56  CB  VAL A   3     -13.648  -0.250   8.051  0.00  0.00    +0.027 C 
ATOM     57  CG2 VAL A   3     -14.529  -0.227   9.266  0.00  0.00    +0.002 C 
ATOM     58  CG1 VAL A   3     -13.062   1.134   7.815  0.00  0.00    +0.002 C 
ENDBRANCH  32  56
ENDBRANCH   1  32
TORSDOF 25
REMARK  Name = ../refined-set-2016/2rkf/2rkf_pocket.pdb
REMARK  226 active torsions:
REMARK  status: ('A' for Active; 'I' for Inactive)
REMARK    1  A    between atoms: _1  and  _3
REMARK    2  A    between atoms: _3  and  _4
REMARK    3  A    between atoms: _3  and  _6
REMARK    4  A    between atoms: _6  and  _7
REMARK    5  A    between atoms: _7  and  _8
REMARK    6  A    between atoms: _8  and  _9
REMARK    7  A    between atoms: _18  and  _20
REMARK    8  A    between atoms: _20  and  _21
REMARK    9  A    between atoms: _20  and  _23
REMARK   10  A    between atoms: _23  and  _24
REMARK   11  A    between atoms: _30  and  _32
REMARK   12  A    between atoms: _32  and  _33
REMARK   13  A    between atoms: _32  and  _35
REMARK   14  A    between atoms: _35  and  _36
REMARK   15  A    between atoms: _39  and  _41
REMARK   16  A    between atoms: _41  and  _42
REMARK   17  A    between atoms: _41  and  _44
REMARK   18  A    between atoms: _44  and  _45
REMARK   19  A    between atoms: _48  and  _50
REMARK   20  A    between atoms: _50  and  _51
REMARK   21  A    between atoms: _50  and  _53
REMARK   22  A    between atoms: _53  and  _54
REMARK   23  A    between atoms: _57  and  _59
REMARK   24  A    between atoms: _59  and  _60
REMARK   25  A    between atoms: _59  and  _62
REMARK   26  A    between atoms: _62  and  _63
REMARK   27  A    between atoms: _66  and  _68
REMARK   28  A    between atoms: _68  and  _69
REMARK   29  A    between atoms: _71  and  _73
REMARK   30  A    between atoms: _73  and  _74
REMARK   31  A    between atoms: _77  and  _79
REMARK   32  A    between atoms: _79  and  _80
REMARK   33  A    between atoms: _79  and  _82
REMARK   34  A    between atoms: _82  and  _83
REMARK   35  A    between atoms: _86  and  _88
REMARK   36  A    between atoms: _88  and  _89
REMARK   37  A    between atoms: _88  and  _91
REMARK   38  A    between atoms: _91  and  _92
REMARK   39  A    between atoms: _95  and  _97
REMARK   40  A    between atoms: _97  and  _98
REMARK   41  A    between atoms: _97  and  _100
REMARK   42  A    between atoms: _100  and  _101
REMARK   43  A    between atoms: _104  and  _106
REMARK   44  A    between atoms: _106  and  _107
REMARK   45  A    between atoms: _106  and  _109
REMARK   46  A    between atoms: _109  and  _110
REMARK   47  A    between atoms: _113  and  _115
REMARK   48  A    between atoms: _115  and  _116
REMARK   49  A    between atoms: _115  and  _118
REMARK   50  A    between atoms: _118  and  _119
REMARK   51  A    between atoms: _122  and  _124
REMARK   52  A    between atoms: _124  and  _125
REMARK   53  A    between atoms: _124  and  _127
REMARK   54  A    between atoms: _127  and  _128
REMARK   55  A    between atoms: _128  and  _129
REMARK   56  A    between atoms: _129  and  _130
REMARK   57  A    between atoms: _130  and  _131
REMARK   58  A    between atoms: _135  and  _137
REMARK   59  A    between atoms: _137  and  _138
REMARK   60  A    between atoms: _137  and  _140
REMARK   61  A    between atoms: _143  and  _145
REMARK   62  A    between atoms: _145  and  _146
REMARK   63  A    between atoms: _145  and  _148
REMARK   64  A    between atoms: _151  and  _153
REMARK   65  A    between atoms: _153  and  _154
REMARK   66  A    between atoms: _156  and  _158
REMARK   67  A    between atoms: _158  and  _159
REMARK   68  A    between atoms: _161  and  _163
REMARK   69  A    between atoms: _163  and  _164
REMARK   70  A    between atoms: _163  and  _166
REMARK   71  A    between atoms: _166  and  _167
REMARK   72  A    between atoms: _170  and  _172
REMARK   73  A    between atoms: _172  and  _173
REMARK   74  A    between atoms: _175  and  _177
REMARK   75  A    between atoms: _177  and  _178
REMARK   76  A    between atoms: _180  and  _182
REMARK   77  A    between atoms: _182  and  _183
REMARK   78  A    between atoms: _182  and  _185
REMARK   79  A    between atoms: _185  and  _186
REMARK   80  A    between atoms: _186  and  _187
REMARK   81  A    between atoms: _189  and  _191
REMARK   82  A    between atoms: _191  and  _192
REMARK   83  A    between atoms: _191  and  _194
REMARK   84  A    between atoms: _194  and  _195
REMARK   85  A    between atoms: _198  and  _200
REMARK   86  A    between atoms: _200  and  _201
REMARK   87  A    between atoms: _200  and  _203
REMARK   88  A    between atoms: _203  and  _204
REMARK   89  A    between atoms: _208  and  _209
REMARK   90  A    between atoms: _214  and  _216
REMARK   91  A    between atoms: _216  and  _217
REMARK   92  A    between atoms: _220  and  _222
REMARK   93  A    between atoms: _222  and  _223
REMARK   94  A    between atoms: _222  and  _225
REMARK   95  A    between atoms: _225  and  _226
REMARK   96  A    between atoms: _231  and  _233
REMARK   97  A    between atoms: _233  and  _234
REMARK   98  A    between atoms: _233  and  _236
REMARK   99  A    between atoms: _236  and  _237
REMARK  100  A    between atoms: _240  and  _242
REMARK  101  A    between atoms: _242  and  _243
REMARK  102  A    between atoms: _242  and  _245
REMARK  103  A    between atoms: _245  and  _246
REMARK  104  A    between atoms: _249  and  _251
REMARK  105  A    between atoms: _251  and  _252
REMARK  106  A    between atoms: _254  and  _256
REMARK  107  A    between atoms: _256  and  _257
REMARK  108  A    between atoms: _256  and  _259
REMARK  109  A    between atoms: _259  and  _260
REMARK  110  A    between atoms: _260  and  _261
REMARK  111  A    between atoms: _261  and  _262
REMARK  112  A    between atoms: _271  and  _273
REMARK  113  A    between atoms: _273  and  _274
REMARK  114  A    between atoms: _273  and  _276
REMARK  115  A    between atoms: _276  and  _277
REMARK  116  A    between atoms: _282  and  _284
REMARK  117  A    between atoms: _284  and  _285
REMARK  118  A    between atoms: _284  and  _287
REMARK  119  A    between atoms: _287  and  _288
REMARK  120  A    between atoms: _288  and  _289
REMARK  121  A    between atoms: _289  and  _290
REMARK  122  A    between atoms: _299  and  _301
REMARK  123  A    between atoms: _301  and  _302
REMARK  124  A    between atoms: _301  and  _304
REMARK  125  A    between atoms: _304  and  _305
REMARK  126  A    between atoms: _311  and  _313
REMARK  127  A    between atoms: _313  and  _314
REMARK  128  A    between atoms: _313  and  _316
REMARK  129  A    between atoms: _316  and  _317
REMARK  130  A    between atoms: _320  and  _322
REMARK  131  A    between atoms: _322  and  _323
REMARK  132  A    between atoms: _322  and  _325
REMARK  133  A    between atoms: _325  and  _326
REMARK  134  A    between atoms: _329  and  _331
REMARK  135  A    between atoms: _331  and  _332
REMARK  136  A    between atoms: _331  and  _334
REMARK  137  A    between atoms: _334  and  _335
REMARK  138  A    between atoms: _338  and  _340
REMARK  139  A    between atoms: _340  and  _341
REMARK  140  A    between atoms: _340  and  _343
REMARK  141  A    between atoms: _343  and  _344
REMARK  142  A    between atoms: _347  and  _349
REMARK  143  A    between atoms: _349  and  _350
REMARK  144  A    between atoms: _352  and  _354
REMARK  145  A    between atoms: _354  and  _355
REMARK  146  A    between atoms: _358  and  _360
REMARK  147  A    between atoms: _360  and  _361
REMARK  148  A    between atoms: _360  and  _363
REMARK  149  A    between atoms: _363  and  _364
REMARK  150  A    between atoms: _367  and  _369
REMARK  151  A    between atoms: _369  and  _370
REMARK  152  A    between atoms: _369  and  _372
REMARK  153  A    between atoms: _372  and  _373
REMARK  154  A    between atoms: _376  and  _378
REMARK  155  A    between atoms: _378  and  _379
REMARK  156  A    between atoms: _378  and  _381
REMARK  157  A    between atoms: _381  and  _382
REMARK  158  A    between atoms: _385  and  _387
REMARK  159  A    between atoms: _387  and  _388
REMARK  160  A    between atoms: _387  and  _390
REMARK  161  A    between atoms: _390  and  _391
REMARK  162  A    between atoms: _394  and  _396
REMARK  163  A    between atoms: _396  and  _397
REMARK  164  A    between atoms: _396  and  _399
REMARK  165  A    between atoms: _399  and  _400
REMARK  166  A    between atoms: _400  and  _401
REMARK  167  A    between atoms: _401  and  _402
REMARK  168  A    between atoms: _402  and  _403
REMARK  169  A    between atoms: _407  and  _409
REMARK  170  A    between atoms: _409  and  _410
REMARK  171  A    between atoms: _409  and  _412
REMARK  172  A    between atoms: _415  and  _417
REMARK  173  A    between atoms: _417  and  _418
REMARK  174  A    between atoms: _417  and  _420
REMARK  175  A    between atoms: _423  and  _425
REMARK  176  A    between atoms: _425  and  _426
REMARK  177  A    between atoms: _428  and  _430
REMARK  178  A    between atoms: _430  and  _431
REMARK  179  A    between atoms: _433  and  _435
REMARK  180  A    between atoms: _435  and  _436
REMARK  181  A    between atoms: _435  and  _438
REMARK  182  A    between atoms: _438  and  _439
REMARK  183  A    between atoms: _442  and  _444
REMARK  184  A    between atoms: _444  and  _445
REMARK  185  A    between atoms: _447  and  _449
REMARK  186  A    between atoms: _449  and  _450
REMARK  187  A    between atoms: _452  and  _454
REMARK  188  A    between atoms: _454  and  _455
REMARK  189  A    between atoms: _454  and  _457
REMARK  190  A    between atoms: _457  and  _458
REMARK  191  A    between atoms: _458  and  _459
REMARK  192  A    between atoms: _461  and  _463
REMARK  193  A    between atoms: _463  and  _464
REMARK  194  A    between atoms: _463  and  _466
REMARK  195  A    between atoms: _466  and  _467
REMARK  196  A    between atoms: _470  and  _472
REMARK  197  A    between atoms: _472  and  _473
REMARK  198  A    between atoms: _472  and  _475
REMARK  199  A    between atoms: _475  and  _476
REMARK  200  A    between atoms: _480  and  _481
REMARK  201  A    between atoms: _486  and  _488
REMARK  202  A    between atoms: _488  and  _489
REMARK  203  A    between atoms: _492  and  _494
REMARK  204  A    between atoms: _494  and  _495
REMARK  205  A    between atoms: _494  and  _497
REMARK  206  A    between atoms: _497  and  _498
REMARK  207  A    between atoms: _503  and  _505
REMARK  208  A    between atoms: _505  and  _506
REMARK  209  A    between atoms: _505  and  _508
REMARK  210  A    between atoms: _508  and  _509
REMARK  211  A    between atoms: _512  and  _514
REMARK  212  A    between atoms: _514  and  _515
REMARK  213  A    between atoms: _514  and  _517
REMARK  214  A    between atoms: _517  and  _518
REMARK  215  A    between atoms: _521  and  _523
REMARK  216  A    between atoms: _523  and  _524
REMARK  217  A    between atoms: _526  and  _528
REMARK  218  A    between atoms: _528  and  _529
REMARK  219  A    between atoms: _528  and  _531
REMARK  220  A    between atoms: _531  and  _532
REMARK  221  A    between atoms: _532  and  _533
REMARK  222  A    between atoms: _533  and  _534
REMARK  223  A    between atoms: _543  and  _545
REMARK  224  A    between atoms: _545  and  _546
REMARK  225  A    between atoms: _545  and  _548
REMARK  226  A    between atoms: _548  and  _549
REMARK                            x       y       z     vdW  Elec       q    Type
REMARK                         _______ _______ _______ _____ _____    ______ ____
ROOT
ATOM      1  CA  MET A   1      -8.629   1.975   6.598  0.00  0.00    +0.134 C 
ENDROOT
BRANCH   1   2
ATOM      2  N   MET A   1      -8.754   0.604   6.142  0.00  0.00    -0.239 NA
ATOM      3  H   MET A   1      -9.466  -0.012   6.584  0.00  0.00    +0.142 HD
ENDBRANCH   1   2
BRANCH   1   4
ATOM      4  C   MET A   1      -8.765   2.004   8.106  0.00  0.00    +0.224 C 
ATOM      5  O   MET A   1      -9.660   1.366   8.667  0.00  0.00    -0.287 OA
ENDBRANCH   1   4
BRANCH   1   6
ATOM      6  CB  MET A   1      -9.742   2.795   5.951  0.00  0.00    +0.037 C 
BRANCH   6   7
ATOM      7  CG  MET A   1      -9.710   4.262   6.227  0.00  0.00    +0.059 C 
BRANCH   7   8
ATOM      8  SD  MET A   1     -11.211   4.965   5.555  0.00  0.00    -0.139 S 
ATOM      9  CE  MET A   1     -12.416   4.448   6.751  0.00  0.00    +0.069 C 
ENDBRANCH   7   8
ENDBRANCH   6   7
ENDBRANCH   1   6
TORSDOF 5
REMARK  Name = ../refined-set-2016/2rkf/2rkf_pocket.pdb
REMARK  226 active torsions:
REMARK  status: ('A' for Active; 'I' for Inactive)
REMARK    1  A    between atoms: _1  and  _3
REMARK    2  A    between atoms: _3  and  _4
REMARK    3  A    between atoms: _3  and  _6
REMARK    4  A    between atoms: _6  and  _7
REMARK    5  A    between atoms: _7  and  _8
REMARK    6  A    between atoms: _8  and  _9
REMARK    7  A    between atoms: _18  and  _20
REMARK    8  A    between atoms: _20  and  _21
REMARK    9  A    between atoms: _20  and  _23
REMARK   10  A    between atoms: _23  and  _24
REMARK   11  A    between atoms: _30  and  _32
REMARK   12  A    between atoms: _32  and  _33
REMARK   13  A    between atoms: _32  and  _35
REMARK   14  A    between atoms: _35  and  _36
REMARK   15  A    between atoms: _39  and  _41
REMARK   16  A    between atoms: _41  and  _42
REMARK   17  A    between atoms: _41  and  _44
REMARK   18  A    between atoms: _44  and  _45
REMARK   19  A    between atoms: _48  and  _50
REMARK   20  A    between atoms: _50  and  _51
REMARK   21  A    between atoms: _50  and  _53
REMARK   22  A    between atoms: _53  and  _54
REMARK   23  A    between atoms: _57  and  _59
REMARK   24  A    between atoms: _59  and  _60
REMARK   25  A    between atoms: _59  and  _62
REMARK   26  A    between atoms: _62  and  _63
REMARK   27  A    between atoms: _66  and  _68
REMARK   28  A    between atoms: _68  and  _69
REMARK   29  A    between atoms: _71  and  _73
REMARK   30  A    between atoms: _73  and  _74
REMARK   31  A    between atoms: _77  and  _79
REMARK   32  A    between atoms: _79  and  _80
REMARK   33  A    between atoms: _79  and  _82
REMARK   34  A    between atoms: _82  and  _83
REMARK   35  A    between atoms: _86  and  _88
REMARK   36  A    between atoms: _88  and  _89
REMARK   37  A    between atoms: _88  and  _91
REMARK   38  A    between atoms: _91  and  _92
REMARK   39  A    between atoms: _95  and  _97
REMARK   40  A    between atoms: _97  and  _98
REMARK   41  A    between atoms: _97  and  _100
REMARK   42  A    between atoms: _100  and  _101
REMARK   43  A    between atoms: _104  and  _106
REMARK   44  A    between atoms: _106  and  _107
REMARK   45  A    between atoms: _106  and  _109
REMARK   46  A    between atoms: _109  and  _110
REMARK   47  A    between atoms: _113  and  _115
REMARK   48  A    between atoms: _115  and  _116
REMARK   49  A    between atoms: _115  and  _118
REMARK   50  A    between atoms: _118  and  _119
REMARK   51  A    between atoms: _122  and  _124
REMARK   52  A    between atoms: _124  and  _125
REMARK   53  A    between atoms: _124  and  _127
REMARK   54  A    between atoms: _127  and  _128
REMARK   55  A    between atoms: _128  and  _129
REMARK   56  A    between atoms: _129  and  _130
REMARK   57  A    between atoms: _130  and  _131
REMARK   58  A    between atoms: _135  and  _137
REMARK   59  A    between atoms: _137  and  _138
REMARK   60  A    between atoms: _137  and  _140
REMARK   61  A    between atoms: _143  and  _145
REMARK   62  A    between atoms: _145  and  _146
REMARK   63  A    between atoms: _145  and  _148
REMARK   64  A    between atoms: _151  and  _153
REMARK   65  A    between atoms: _153  and  _154
REMARK   66  A    between atoms: _156  and  _158
REMARK   67  A    between atoms: _158  and  _159
REMARK   68  A    between atoms: _161  and  _163
REMARK   69  A    between atoms: _163  and  _164
REMARK   70  A    between atoms: _163  and  _166
REMARK   71  A    between atoms: _166  and  _167
REMARK   72  A    between atoms: _170  and  _172
REMARK   73  A    between atoms: _172  and  _173
REMARK   74  A    between atoms: _175  and  _177
REMARK   75  A    between atoms: _177  and  _178
REMARK   76  A    between atoms: _180  and  _182
REMARK   77  A    between atoms: _182  and  _183
REMARK   78  A    between atoms: _182  and  _185
REMARK   79  A    between atoms: _185  and  _186
REMARK   80  A    between atoms: _186  and  _187
REMARK   81  A    between atoms: _189  and  _191
REMARK   82  A    between atoms: _191  and  _192
REMARK   83  A    between atoms: _191  and  _194
REMARK   84  A    between atoms: _194  and  _195
REMARK   85  A    between atoms: _198  and  _200
REMARK   86  A    between atoms: _200  and  _201
REMARK   87  A    between atoms: _200  and  _203
REMARK   88  A    between atoms: _203  and  _204
REMARK   89  A    between atoms: _208  and  _209
REMARK   90  A    between atoms: _214  and  _216
REMARK   91  A    between atoms: _216  and  _217
REMARK   92  A    between atoms: _220  and  _222
REMARK   93  A    between atoms: _222  and  _223
REMARK   94  A    between atoms: _222  and  _225
REMARK   95  A    between atoms: _225  and  _226
REMARK   96  A    between atoms: _231  and  _233
REMARK   97  A    between atoms: _233  and  _234
REMARK   98  A    between atoms: _233  and  _236
REMARK   99  A    between atoms: _236  and  _237
REMARK  100  A    between atoms: _240  and  _242
REMARK  101  A    between atoms: _242  and  _243
REMARK  102  A    between atoms: _242  and  _245
REMARK  103  A    between atoms: _245  and  _246
REMARK  104  A    between atoms: _249  and  _251
REMARK  105  A    between atoms: _251  and  _252
REMARK  106  A    between atoms: _254  and  _256
REMARK  107  A    between atoms: _256  and  _257
REMARK  108  A    between atoms: _256  and  _259
REMARK  109  A    between atoms: _259  and  _260
REMARK  110  A    between atoms: _260  and  _261
REMARK  111  A    between atoms: _261  and  _262
REMARK  112  A    between atoms: _271  and  _273
REMARK  113  A    between atoms: _273  and  _274
REMARK  114  A    between atoms: _273  and  _276
REMARK  115  A    between atoms: _276  and  _277
REMARK  116  A    between atoms: _282  and  _284
REMARK  117  A    between atoms: _284  and  _285
REMARK  118  A    between atoms: _284  and  _287
REMARK  119  A    between atoms: _287  and  _288
REMARK  120  A    between atoms: _288  and  _289
REMARK  121  A    between atoms: _289  and  _290
REMARK  122  A    between atoms: _299  and  _301
REMARK  123  A    between atoms: _301  and  _302
REMARK  124  A    between atoms: _301  and  _304
REMARK  125  A    between atoms: _304  and  _305
REMARK  126  A    between atoms: _311  and  _313
REMARK  127  A    between atoms: _313  and  _314
REMARK  128  A    between atoms: _313  and  _316
REMARK  129  A    between atoms: _316  and  _317
REMARK  130  A    between atoms: _320  and  _322
REMARK  131  A    between atoms: _322  and  _323
REMARK  132  A    between atoms: _322  and  _325
REMARK  133  A    between atoms: _325  and  _326
REMARK  134  A    between atoms: _329  and  _331
REMARK  135  A    between atoms: _331  and  _332
REMARK  136  A    between atoms: _331  and  _334
REMARK  137  A    between atoms: _334  and  _335
REMARK  138  A    between atoms: _338  and  _340
REMARK  139  A    between atoms: _340  and  _341
REMARK  140  A    between atoms: _340  and  _343
REMARK  141  A    between atoms: _343  and  _344
REMARK  142  A    between atoms: _347  and  _349
REMARK  143  A    between atoms: _349  and  _350
REMARK  144  A    between atoms: _352  and  _354
REMARK  145  A    between atoms: _354  and  _355
REMARK  146  A    between atoms: _358  and  _360
REMARK  147  A    between atoms: _360  and  _361
REMARK  148  A    between atoms: _360  and  _363
REMARK  149  A    between atoms: _363  and  _364
REMARK  150  A    between atoms: _367  and  _369
REMARK  151  A    between atoms: _369  and  _370
REMARK  152  A    between atoms: _369  and  _372
REMARK  153  A    between atoms: _372  and  _373
REMARK  154  A    between atoms: _376  and  _378
REMARK  155  A    between atoms: _378  and  _379
REMARK  156  A    between atoms: _378  and  _381
REMARK  157  A    between atoms: _381  and  _382
REMARK  158  A    between atoms: _385  and  _387
REMARK  159  A    between atoms: _387  and  _388
REMARK  160  A    between atoms: _387  and  _390
REMARK  161  A    between atoms: _390  and  _391
REMARK  162  A    between atoms: _394  and  _396
REMARK  163  A    between atoms: _396  and  _397
REMARK  164  A    between atoms: _396  and  _399
REMARK  165  A    between atoms: _399  and  _400
REMARK  166  A    between atoms: _400  and  _401
REMARK  167  A    between atoms: _401  and  _402
REMARK  168  A    between atoms: _402  and  _403
REMARK  169  A    between atoms: _407  and  _409
REMARK  170  A    between atoms: _409  and  _410
REMARK  171  A    between atoms: _409  and  _412
REMARK  172  A    between atoms: _415  and  _417
REMARK  173  A    between atoms: _417  and  _418
REMARK  174  A    between atoms: _417  and  _420
REMARK  175  A    between atoms: _423  and  _425
REMARK  176  A    between atoms: _425  and  _426
REMARK  177  A    between atoms: _428  and  _430
REMARK  178  A    between atoms: _430  and  _431
REMARK  179  A    between atoms: _433  and  _435
REMARK  180  A    between atoms: _435  and  _436
REMARK  181  A    between atoms: _435  and  _438
REMARK  182  A    between atoms: _438  and  _439
REMARK  183  A    between atoms: _442  and  _444
REMARK  184  A    between atoms: _444  and  _445
REMARK  185  A    between atoms: _447  and  _449
REMARK  186  A    between atoms: _449  and  _450
REMARK  187  A    between atoms: _452  and  _454
REMARK  188  A    between atoms: _454  and  _455
REMARK  189  A    between atoms: _454  and  _457
REMARK  190  A    between atoms: _457  and  _458
REMARK  191  A    between atoms: _458  and  _459
REMARK  192  A    between atoms: _461  and  _463
REMARK  193  A    between atoms: _463  and  _464
REMARK  194  A    between atoms: _463  and  _466
REMARK  195  A    between atoms: _466  and  _467
REMARK  196  A    between atoms: _470  and  _472
REMARK  197  A    between atoms: _472  and  _473
REMARK  198  A    between atoms: _472  and  _475
REMARK  199  A    between atoms: _475  and  _476
REMARK  200  A    between atoms: _480  and  _481
REMARK  201  A    between atoms: _486  and  _488
REMARK  202  A    between atoms: _488  and  _489
REMARK  203  A    between atoms: _492  and  _494
REMARK  204  A    between atoms: _494  and  _495
REMARK  205  A    between atoms: _494  and  _497
REMARK  206  A    between atoms: _497  and  _498
REMARK  207  A    between atoms: _503  and  _505
REMARK  208  A    between atoms: _505  and  _506
REMARK  209  A    between atoms: _505  and  _508
REMARK  210  A    between atoms: _508  and  _509
REMARK  211  A    between atoms: _512  and  _514
REMARK  212  A    between atoms: _514  and  _515
REMARK  213  A    between atoms: _514  and  _517
REMARK  214  A    between atoms: _517  and  _518
REMARK  215  A    between atoms: _521  and  _523
REMARK  216  A    between atoms: _523  and  _524
REMARK  217  A    between atoms: _526  and  _528
REMARK  218  A    between atoms: _528  and  _529
REMARK  219  A    between atoms: _528  and  _531
REMARK  220  A    between atoms: _531  and  _532
REMARK  221  A    between atoms: _532  and  _533
REMARK  222  A    between atoms: _533  and  _534
REMARK  223  A    between atoms: _543  and  _545
REMARK  224  A    between atoms: _545  and  _546
REMARK  225  A    between atoms: _545  and  _548
REMARK  226  A    between atoms: _548  and  _549
REMARK                            x       y       z     vdW  Elec       q    Type
REMARK                         _______ _______ _______ _____ _____    ______ ____
ROOT
ATOM      1  CA  LEU A   1     -16.762   5.263  12.791  0.00  0.00    +0.133 C 
ENDROOT
BRANCH   1   2
ATOM      2  N   LEU A   1     -18.211   5.289  13.030  0.00  0.00    -0.239 NA
ATOM      3  H   LEU A   1     -18.854   5.039  12.251  0.00  0.00    +0.142 HD
ENDBRANCH   1   2
BRANCH   1   4
ATOM      4  C   LEU A   1     -16.360   6.562  12.127  0.00  0.00    +0.224 C 
ATOM      5  O   LEU A   1     -17.085   7.074  11.258  0.00  0.00    -0.287 OA
ENDBRANCH   1   4
BRANCH   1   6
ATOM      6  CB  LEU A   1     -16.364   4.075  11.894  0.00  0.00    +0.025 C 
BRANCH   6   7
ATOM      7  CG  LEU A   1     -16.974   2.725  12.290  0.00  0.00    +0.002 C 
ATOM      8  CD2 LEU A   1     -16.473   2.274  13.646  0.00  0.00    +0.000 C 
ATOM      9  CD1 LEU A   1     -16.692   1.669  11.203  0.00  0.00    +0.000 C 
ENDBRANCH   6   7
ENDBRANCH   1   6
TORSDOF 4
REMARK  Name = ../refined-set-2016/2rkf/2rkf_pocket.pdb
REMARK  226 active torsions:
REMARK  status: ('A' for Active; 'I' for Inactive)
REMARK    1  A    between atoms: _1  and  _3
REMARK    2  A    between atoms: _3  and  _4
REMARK    3  A    between atoms: _3  and  _6
REMARK    4  A    between atoms: _6  and  _7
REMARK    5  A    between atoms: _7  and  _8
REMARK    6  A    between atoms: _8  and  _9
REMARK    7  A    between atoms: _18  and  _20
REMARK    8  A    between atoms: _20  and  _21
REMARK    9  A    between atoms: _20  and  _23
REMARK   10  A    between atoms: _23  and  _24
REMARK   11  A    between atoms: _30  and  _32
REMARK   12  A    between atoms: _32  and  _33
REMARK   13  A    between atoms: _32  and  _35
REMARK   14  A    between atoms: _35  and  _36
REMARK   15  A    between atoms: _39  and  _41
REMARK   16  A    between atoms: _41  and  _42
REMARK   17  A    between atoms: _41  and  _44
REMARK   18  A    between atoms: _44  and  _45
REMARK   19  A    between atoms: _48  and  _50
REMARK   20  A    between atoms: _50  and  _51
REMARK   21  A    between atoms: _50  and  _53
REMARK   22  A    between atoms: _53  and  _54
REMARK   23  A    between atoms: _57  and  _59
REMARK   24  A    between atoms: _59  and  _60
REMARK   25  A    between atoms: _59  and  _62
REMARK   26  A    between atoms: _62  and  _63
REMARK   27  A    between atoms: _66  and  _68
REMARK   28  A    between atoms: _68  and  _69
REMARK   29  A    between atoms: _71  and  _73
REMARK   30  A    between atoms: _73  and  _74
REMARK   31  A    between atoms: _77  and  _79
REMARK   32  A    between atoms: _79  and  _80
REMARK   33  A    between atoms: _79  and  _82
REMARK   34  A    between atoms: _82  and  _83
REMARK   35  A    between atoms: _86  and  _88
REMARK   36  A    between atoms: _88  and  _89
REMARK   37  A    between atoms: _88  and  _91
REMARK   38  A    between atoms: _91  and  _92
REMARK   39  A    between atoms: _95  and  _97
REMARK   40  A    between atoms: _97  and  _98
REMARK   41  A    between atoms: _97  and  _100
REMARK   42  A    between atoms: _100  and  _101
REMARK   43  A    between atoms: _104  and  _106
REMARK   44  A    between atoms: _106  and  _107
REMARK   45  A    between atoms: _106  and  _109
REMARK   46  A    between atoms: _109  and  _110
REMARK   47  A    between atoms: _113  and  _115
REMARK   48  A    between atoms: _115  and  _116
REMARK   49  A    between atoms: _115  and  _118
REMARK   50  A    between atoms: _118  and  _119
REMARK   51  A    between atoms: _122  and  _124
REMARK   52  A    between atoms: _124  and  _125
REMARK   53  A    between atoms: _124  and  _127
REMARK   54  A    between atoms: _127  and  _128
REMARK   55  A    between atoms: _128  and  _129
REMARK   56  A    between atoms: _129  and  _130
REMARK   57  A    between atoms: _130  and  _131
REMARK   58  A    between atoms: _135  and  _137
REMARK   59  A    between atoms: _137  and  _138
REMARK   60  A    between atoms: _137  and  _140
REMARK   61  A    between atoms: _143  and  _145
REMARK   62  A    between atoms: _145  and  _146
REMARK   63  A    between atoms: _145  and  _148
REMARK   64  A    between atoms: _151  and  _153
REMARK   65  A    between atoms: _153  and  _154
REMARK   66  A    between atoms: _156  and  _158
REMARK   67  A    between atoms: _158  and  _159
REMARK   68  A    between atoms: _161  and  _163
REMARK   69  A    between atoms: _163  and  _164
REMARK   70  A    between atoms: _163  and  _166
REMARK   71  A    between atoms: _166  and  _167
REMARK   72  A    between atoms: _170  and  _172
REMARK   73  A    between atoms: _172  and  _173
REMARK   74  A    between atoms: _175  and  _177
REMARK   75  A    between atoms: _177  and  _178
REMARK   76  A    between atoms: _180  and  _182
REMARK   77  A    between atoms: _182  and  _183
REMARK   78  A    between atoms: _182  and  _185
REMARK   79  A    between atoms: _185  and  _186
REMARK   80  A    between atoms: _186  and  _187
REMARK   81  A    between atoms: _189  and  _191
REMARK   82  A    between atoms: _191  and  _192
REMARK   83  A    between atoms: _191  and  _194
REMARK   84  A    between atoms: _194  and  _195
REMARK   85  A    between atoms: _198  and  _200
REMARK   86  A    between atoms: _200  and  _201
REMARK   87  A    between atoms: _200  and  _203
REMARK   88  A    between atoms: _203  and  _204
REMARK   89  A    between atoms: _208  and  _209
REMARK   90  A    between atoms: _214  and  _216
REMARK   91  A    between atoms: _216  and  _217
REMARK   92  A    between atoms: _220  and  _222
REMARK   93  A    between atoms: _222  and  _223
REMARK   94  A    between atoms: _222  and  _225
REMARK   95  A    between atoms: _225  and  _226
REMARK   96  A    between atoms: _231  and  _233
REMARK   97  A    between atoms: _233  and  _234
REMARK   98  A    between atoms: _233  and  _236
REMARK   99  A    between atoms: _236  and  _237
REMARK  100  A    between atoms: _240  and  _242
REMARK  101  A    between atoms: _242  and  _243
REMARK  102  A    between atoms: _242  and  _245
REMARK  103  A    between atoms: _245  and  _246
REMARK  104  A    between atoms: _249  and  _251
REMARK  105  A    between atoms: _251  and  _252
REMARK  106  A    between atoms: _254  and  _256
REMARK  107  A    between atoms: _256  and  _257
REMARK  108  A    between atoms: _256  and  _259
REMARK  109  A    between atoms: _259  and  _260
REMARK  110  A    between atoms: _260  and  _261
REMARK  111  A    between atoms: _261  and  _262
REMARK  112  A    between atoms: _271  and  _273
REMARK  113  A    between atoms: _273  and  _274
REMARK  114  A    between atoms: _273  and  _276
REMARK  115  A    between atoms: _276  and  _277
REMARK  116  A    between atoms: _282  and  _284
REMARK  117  A    between atoms: _284  and  _285
REMARK  118  A    between atoms: _284  and  _287
REMARK  119  A    between atoms: _287  and  _288
REMARK  120  A    between atoms: _288  and  _289
REMARK  121  A    between atoms: _289  and  _290
REMARK  122  A    between atoms: _299  and  _301
REMARK  123  A    between atoms: _301  and  _302
REMARK  124  A    between atoms: _301  and  _304
REMARK  125  A    between atoms: _304  and  _305
REMARK  126  A    between atoms: _311  and  _313
REMARK  127  A    between atoms: _313  and  _314
REMARK  128  A    between atoms: _313  and  _316
REMARK  129  A    between atoms: _316  and  _317
REMARK  130  A    between atoms: _320  and  _322
REMARK  131  A    between atoms: _322  and  _323
REMARK  132  A    between atoms: _322  and  _325
REMARK  133  A    between atoms: _325  and  _326
REMARK  134  A    between atoms: _329  and  _331
REMARK  135  A    between atoms: _331  and  _332
REMARK  136  A    between atoms: _331  and  _334
REMARK  137  A    between atoms: _334  and  _335
REMARK  138  A    between atoms: _338  and  _340
REMARK  139  A    between atoms: _340  and  _341
REMARK  140  A    between atoms: _340  and  _343
REMARK  141  A    between atoms: _343  and  _344
REMARK  142  A    between atoms: _347  and  _349
REMARK  143  A    between atoms: _349  and  _350
REMARK  144  A    between atoms: _352  and  _354
REMARK  145  A    between atoms: _354  and  _355
REMARK  146  A    between atoms: _358  and  _360
REMARK  147  A    between atoms: _360  and  _361
REMARK  148  A    between atoms: _360  and  _363
REMARK  149  A    between atoms: _363  and  _364
REMARK  150  A    between atoms: _367  and  _369
REMARK  151  A    between atoms: _369  and  _370
REMARK  152  A    between atoms: _369  and  _372
REMARK  153  A    between atoms: _372  and  _373
REMARK  154  A    between atoms: _376  and  _378
REMARK  155  A    between atoms: _378  and  _379
REMARK  156  A    between atoms: _378  and  _381
REMARK  157  A    between atoms: _381  and  _382
REMARK  158  A    between atoms: _385  and  _387
REMARK  159  A    between atoms: _387  and  _388
REMARK  160  A    between atoms: _387  and  _390
REMARK  161  A    between atoms: _390  and  _391
REMARK  162  A    between atoms: _394  and  _396
REMARK  163  A    between atoms: _396  and  _397
REMARK  164  A    between atoms: _396  and  _399
REMARK  165  A    between atoms: _399  and  _400
REMARK  166  A    between atoms: _400  and  _401
REMARK  167  A    between atoms: _401  and  _402
REMARK  168  A    between atoms: _402  and  _403
REMARK  169  A    between atoms: _407  and  _409
REMARK  170  A    between atoms: _409  and  _410
REMARK  171  A    between atoms: _409  and  _412
REMARK  172  A    between atoms: _415  and  _417
REMARK  173  A    between atoms: _417  and  _418
REMARK  174  A    between atoms: _417  and  _420
REMARK  175  A    between atoms: _423  and  _425
REMARK  176  A    between atoms: _425  and  _426
REMARK  177  A    between atoms: _428  and  _430
REMARK  178  A    between atoms: _430  and  _431
REMARK  179  A    between atoms: _433  and  _435
REMARK  180  A    between atoms: _435  and  _436
REMARK  181  A    between atoms: _435  and  _438
REMARK  182  A    between atoms: _438  and  _439
REMARK  183  A    between atoms: _442  and  _444
REMARK  184  A    between atoms: _444  and  _445
REMARK  185  A    between atoms: _447  and  _449
REMARK  186  A    between atoms: _449  and  _450
REMARK  187  A    between atoms: _452  and  _454
REMARK  188  A    between atoms: _454  and  _455
REMARK  189  A    between atoms: _454  and  _457
REMARK  190  A    between atoms: _457  and  _458
REMARK  191  A    between atoms: _458  and  _459
REMARK  192  A    between atoms: _461  and  _463
REMARK  193  A    between atoms: _463  and  _464
REMARK  194  A    between atoms: _463  and  _466
REMARK  195  A    between atoms: _466  and  _467
REMARK  196  A    between atoms: _470  and  _472
REMARK  197  A    between atoms: _472  and  _473
REMARK  198  A    between atoms: _472  and  _475
REMARK  199  A    between atoms: _475  and  _476
REMARK  200  A    between atoms: _480  and  _481
REMARK  201  A    between atoms: _486  and  _488
REMARK  202  A    between atoms: _488  and  _489
REMARK  203  A    between atoms: _492  and  _494
REMARK  204  A    between atoms: _494  and  _495
REMARK  205  A    between atoms: _494  and  _497
REMARK  206  A    between atoms: _497  and  _498
REMARK  207  A    between atoms: _503  and  _505
REMARK  208  A    between atoms: _505  and  _506
REMARK  209  A    between atoms: _505  and  _508
REMARK  210  A    between atoms: _508  and  _509
REMARK  211  A    between atoms: _512  and  _514
REMARK  212  A    between atoms: _514  and  _515
REMARK  213  A    between atoms: _514  and  _517
REMARK  214  A    between atoms: _517  and  _518
REMARK  215  A    between atoms: _521  and  _523
REMARK  216  A    between atoms: _523  and  _524
REMARK  217  A    between atoms: _526  and  _528
REMARK  218  A    between atoms: _528  and  _529
REMARK  219  A    between atoms: _528  and  _531
REMARK  220  A    between atoms: _531  and  _532
REMARK  221  A    between atoms: _532  and  _533
REMARK  222  A    between atoms: _533  and  _534
REMARK  223  A    between atoms: _543  and  _545
REMARK  224  A    between atoms: _545  and  _546
REMARK  225  A    between atoms: _545  and  _548
REMARK  226  A    between atoms: _548  and  _549
REMARK                            x       y       z     vdW  Elec       q    Type
REMARK                         _______ _______ _______ _____ _____    ______ ____
ROOT
ATOM      1  C   ILE A   5     -22.655   6.012   5.867  0.00  0.00    +0.241 C 
ATOM      2  O   ILE A   5     -22.144   5.849   6.991  0.00  0.00    -0.273 OA
ATOM      3  N   ILE A   6     -23.961   5.890   5.640  0.00  0.00    -0.297 N 
ATOM      4  H   ILE A   6     -24.338   6.143   4.704  0.00  0.00    +0.150 HD
ENDROOT
BRANCH   3   5
ATOM      5  CA  ILE A   6     -24.881   5.409   6.672  0.00  0.00    +0.149 C 
BRANCH   5   6
ATOM      6  C   ILE A   6     -25.084   3.931   6.400  0.00  0.00    +0.241 C 
ATOM      7  N   GLY A   7     -24.579   3.101   7.310  0.00  0.00    -0.295 N 
ATOM      8  H   GLY A   7     -24.137   3.491   8.167  0.00  0.00    +0.150 HD
ATOM      9  O   ILE A   6     -25.666   3.554   5.380  0.00  0.00    -0.273 OA
BRANCH   7  10
ATOM     10  CA  GLY A   7     -24.634   1.632   7.125  0.00  0.00    +0.176 C 
BRANCH  10  11
ATOM     11  C   GLY A   7     -25.844   1.017   7.835  0.00  0.00    +0.243 C 
ATOM     12  O   GLY A   7     -26.669   1.740   8.446  0.00  0.00    -0.273 OA
ATOM     13  N   ARG A   8     -25.948  -0.304   7.750  0.00  0.00    -0.297 N 
ATOM     14  H   ARG A   8     -25.159  -0.852   7.352  0.00  0.00    +0.150 HD
BRANCH  13  15
ATOM     15  CA  ARG A   8     -27.159  -1.010   8.209  0.00  0.00    +0.149 C 
BRANCH  15  16
ATOM     16  C   ARG A   8     -27.398  -0.841   9.698  0.00  0.00    +0.241 C 
ATOM     17  N   ASN A   9     -26.333  -0.599  10.455  0.00  0.00    -0.298 N 
ATOM     18  H   ASN A   9     -25.388  -0.564  10.022  0.00  0.00    +0.150 HD
ATOM     19  O   ARG A   8     -28.550  -0.941  10.153  0.00  0.00    -0.273 OA
BRANCH  17  20
ATOM     20  CA  ASN A   9     -26.482  -0.379  11.908  0.00  0.00    +0.146 C 
BRANCH  20  21
ATOM     21  C   ASN A   9     -27.442   0.775  12.245  0.00  0.00    +0.227 C 
ATOM     22  O   ASN A   9     -28.141   0.751  13.281  0.00  0.00    -0.286 OA
ENDBRANCH  20  21
BRANCH  20  23
ATOM     23  CB  ASN A   9     -25.121  -0.190  12.593  0.00  0.00    +0.112 C 
BRANCH  23  24
ATOM     24  CG  ASN A   9     -24.504   1.152  12.332  0.00  0.00    +0.222 C 
ATOM     25  ND2 ASN A   9     -24.188   1.879  13.420  0.00  0.00    -0.329 N 
ATOM     26 HD21 ASN A   9     -24.419   1.522  14.369  0.00  0.00    +0.145 HD
ATOM     27 HD22 ASN A   9     -23.713   2.798  13.311  0.00  0.00    +0.145 HD
ATOM     28  OD1 ASN A   9     -24.253   1.529  11.178  0.00  0.00    -0.275 OA
ENDBRANCH  23  24
ENDBRANCH  20  23
ENDBRANCH  17  20
ENDBRANCH  15  16
BRANCH  15  29
ATOM     29  CB  ARG A   8     -27.096  -2.497   7.864  0.00  0.00    +0.033 C 
BRANCH  29  30
ATOM     30  CG  ARG A   8     -27.109  -2.766   6.327  0.00  0.00    +0.045 C 
BRANCH  30  31
ATOM     31  CD  ARG A   8     -27.193  -4.274   6.009  0.00  0.00    +0.174 C 
BRANCH  31  32
ATOM     32  NE  ARG A   8     -26.000  -4.978   6.501  0.00  0.00    -0.265 N 
ATOM     33  CZ  ARG A   8     -25.922  -5.643   7.658  0.00  0.00    +0.342 C 
ATOM     34  NH2 ARG A   8     -26.988  -5.793   8.445  0.00  0.00    -0.292 N 
ATOM     35 HH21 ARG A   8     -26.904  -6.314   9.341  0.00  0.00    +0.255 HD
ATOM     36 HH22 ARG A   8     -27.904  -5.389   8.163  0.00  0.00    +0.255 HD
ATOM     37  NH1 ARG A   8     -24.788  -6.225   8.022  0.00  0.00    -0.292 N 
ATOM     38 HH11 ARG A   8     -24.734  -6.741   8.923  0.00  0.00    +0.255 HD
ATOM     39 HH12 ARG A   8     -23.952  -6.166   7.406  0.00  0.00    +0.255 HD
ATOM     40  HE  ARG A   8     -25.150  -4.957   5.902  0.00  0.00    +0.259 HD
ENDBRANCH  31  32
ENDBRANCH  30  31
ENDBRANCH  29  30
ENDBRANCH  15  29
ENDBRANCH  13  15
ENDBRANCH  10  11
ENDBRANCH   7  10
ENDBRANCH   5   6
BRANCH   5  41
ATOM     41  CB  ILE A   6     -26.242   6.140   6.625  0.00  0.00    +0.027 C 
ATOM     42  CG2 ILE A   6     -27.202   5.570   7.709  0.00  0.00    +0.002 C 
BRANCH  41  43
ATOM     43  CG1 ILE A   6     -26.036   7.657   6.781  0.00  0.00    +0.002 C 
ATOM     44  CD1 ILE A   6     -25.206   8.063   7.986  0.00  0.00    +0.000 C 
ENDBRANCH  41  43
ENDBRANCH   5  41
ENDBRANCH   3   5
BRANCH   1  45
ATOM     45  CA  ILE A   5     -21.801   6.351   4.652  0.00  0.00    +0.149 C 
BRANCH  45  47
ATOM     46  C   ASN A   4     -20.884   8.553   4.106  0.00  0.00    +0.241 C 
ATOM     47  N   ILE A   5     -20.942   7.511   4.922  0.00  0.00    -0.297 N 
ATOM     48  H   ILE A   5     -20.359   7.515   5.783  0.00  0.00    +0.150 HD
ATOM     49  O   ASN A   4     -21.611   8.696   3.105  0.00  0.00    -0.273 OA
BRANCH  46  50
ATOM     50  CA  ASN A   4     -19.868   9.637   4.471  0.00  0.00    +0.158 C 
BRANCH  50  53
ATOM     51  C   ALA A   3     -18.240   9.007   2.752  0.00  0.00    +0.241 C 
ATOM     52  O   ALA A   3     -17.890   7.984   3.365  0.00  0.00    -0.273 OA
ATOM     53  N   ASN A   4     -19.119   9.890   3.239  0.00  0.00    -0.297 N 
ATOM     54  H   ASN A   4     -19.275  10.782   2.728  0.00  0.00    +0.150 HD
BRANCH  51  55
ATOM     55  CA  ALA A   3     -17.653   9.302   1.373  0.00  0.00    +0.149 C 
ATOM     56  CB  ALA A   3     -18.413   8.536   0.314  0.00  0.00    +0.031 C 
BRANCH  55  58
ATOM     57  C   PRO A   2     -15.385   9.557   0.519  0.00  0.00    +0.241 C 
ATOM     58  N   ALA A   3     -16.252   8.930   1.316  0.00  0.00    -0.297 N 
ATOM     59  H   ALA A   3     -15.913   8.150   1.915  0.00  0.00    +0.150 HD
ATOM     60  O   PRO A   2     -15.706  10.491  -0.233  0.00  0.00    -0.273 OA
BRANCH  57  67
ATOM     61  C   THR A   1     -13.558   8.875   3.013  0.00  0.00    +0.244 C 
ATOM     62  O   THR A   1     -13.670  10.090   3.195  0.00  0.00    -0.273 OA
ATOM     63  N   PRO A   2     -13.586   8.318   1.790  0.00  0.00    -0.272 N 
ATOM     64  CD  PRO A   2     -13.215   6.925   1.472  0.00  0.00    +0.094 C 
ATOM     65  CG  PRO A   2     -13.466   6.814   0.010  0.00  0.00    +0.024 C 
ATOM     66  CB  PRO A   2     -13.570   8.176  -0.568  0.00  0.00    +0.031 C 
ATOM     67  CA  PRO A   2     -13.923   9.105   0.596  0.00  0.00    +0.152 C 
BRANCH  61  68
ATOM     68  CA  THR A   1     -13.346   7.942   4.200  0.00  0.00    +0.172 C 
BRANCH  68  69
ATOM     69  N   THR A   1     -12.477   8.556   5.186  0.00  0.00    -0.236 NA
ATOM     70  H   THR A   1     -12.894   8.962   6.048  0.00  0.00    +0.142 HD
ENDBRANCH  68  69
BRANCH  68  71
ATOM     71  CB  THR A   1     -14.721   7.552   4.806  0.00  0.00    +0.135 C 
ATOM     72  CG2 THR A   1     -15.456   8.772   5.355  0.00  0.00    +0.034 C 
BRANCH  71  73
ATOM     73  OG1 THR A   1     -15.517   6.962   3.781  0.00  0.00    -0.383 OA
ATOM     74  HG1 THR A   1     -16.398   6.708   4.154  0.00  0.00    +0.210 HD
ENDBRANCH  71  73
ENDBRANCH  68  71
ENDBRANCH  61  68
ENDBRANCH  57  67
ENDBRANCH  55  58
ENDBRANCH  51  55
ENDBRANCH  50  53
BRANCH  50  75
ATOM     75  CB  ASN A   4     -20.657  10.856   4.976  0.00  0.00    +0.114 C 
BRANCH  75  76
ATOM     76  CG  ASN A   4     -19.779  12.020   5.447  0.00  0.00    +0.222 C 
ATOM     77  OD1 ASN A   4     -18.940  11.883   6.351  0.00  0.00    -0.275 OA
ATOM     78  ND2 ASN A   4     -20.019  13.201   4.863  0.00  0.00    -0.329 N 
ATOM     79 HD21 ASN A   4     -19.493  14.046   5.164  0.00  0.00    +0.145 HD
ATOM     80 HD22 ASN A   4     -20.731  13.273   4.108  0.00  0.00    +0.145 HD
ENDBRANCH  75  76
ENDBRANCH  50  75
ENDBRANCH  46  50
ENDBRANCH  45  47
BRANCH  45  81
ATOM     81  CB  ILE A   5     -20.924   5.119   4.286  0.00  0.00    +0.027 C 
ATOM     82  CG2 ILE A   5     -21.740   3.827   4.222  0.00  0.00    +0.002 C 
BRANCH  81  83
ATOM     83  CG1 ILE A   5     -20.137   5.388   2.994  0.00  0.00    +0.002 C 
ATOM     84  CD1 ILE A   5     -18.883   4.515   2.924  0.00  0.00    +0.000 C 
ENDBRANCH  81  83
ENDBRANCH  45  81
ENDBRANCH   1  45
TORSDOF 31
REMARK  Name = ../refined-set-2016/2rkf/2rkf_pocket.pdb
REMARK  226 active torsions:
REMARK  status: ('A' for Active; 'I' for Inactive)
REMARK    1  A    between atoms: _1  and  _3
REMARK    2  A    between atoms: _3  and  _4
REMARK    3  A    between atoms: _3  and  _6
REMARK    4  A    between atoms: _6  and  _7
REMARK    5  A    between atoms: _7  and  _8
REMARK    6  A    between atoms: _8  and  _9
REMARK    7  A    between atoms: _18  and  _20
REMARK    8  A    between atoms: _20  and  _21
REMARK    9  A    between atoms: _20  and  _23
REMARK   10  A    between atoms: _23  and  _24
REMARK   11  A    between atoms: _30  and  _32
REMARK   12  A    between atoms: _32  and  _33
REMARK   13  A    between atoms: _32  and  _35
REMARK   14  A    between atoms: _35  and  _36
REMARK   15  A    between atoms: _39  and  _41
REMARK   16  A    between atoms: _41  and  _42
REMARK   17  A    between atoms: _41  and  _44
REMARK   18  A    between atoms: _44  and  _45
REMARK   19  A    between atoms: _48  and  _50
REMARK   20  A    between atoms: _50  and  _51
REMARK   21  A    between atoms: _50  and  _53
REMARK   22  A    between atoms: _53  and  _54
REMARK   23  A    between atoms: _57  and  _59
REMARK   24  A    between atoms: _59  and  _60
REMARK   25  A    between atoms: _59  and  _62
REMARK   26  A    between atoms: _62  and  _63
REMARK   27  A    between atoms: _66  and  _68
REMARK   28  A    between atoms: _68  and  _69
REMARK   29  A    between atoms: _71  and  _73
REMARK   30  A    between atoms: _73  and  _74
REMARK   31  A    between atoms: _77  and  _79
REMARK   32  A    between atoms: _79  and  _80
REMARK   33  A    between atoms: _79  and  _82
REMARK   34  A    between atoms: _82  and  _83
REMARK   35  A    between atoms: _86  and  _88
REMARK   36  A    between atoms: _88  and  _89
REMARK   37  A    between atoms: _88  and  _91
REMARK   38  A    between atoms: _91  and  _92
REMARK   39  A    between atoms: _95  and  _97
REMARK   40  A    between atoms: _97  and  _98
REMARK   41  A    between atoms: _97  and  _100
REMARK   42  A    between atoms: _100  and  _101
REMARK   43  A    between atoms: _104  and  _106
REMARK   44  A    between atoms: _106  and  _107
REMARK   45  A    between atoms: _106  and  _109
REMARK   46  A    between atoms: _109  and  _110
REMARK   47  A    between atoms: _113  and  _115
REMARK   48  A    between atoms: _115  and  _116
REMARK   49  A    between atoms: _115  and  _118
REMARK   50  A    between atoms: _118  and  _119
REMARK   51  A    between atoms: _122  and  _124
REMARK   52  A    between atoms: _124  and  _125
REMARK   53  A    between atoms: _124  and  _127
REMARK   54  A    between atoms: _127  and  _128
REMARK   55  A    between atoms: _128  and  _129
REMARK   56  A    between atoms: _129  and  _130
REMARK   57  A    between atoms: _130  and  _131
REMARK   58  A    between atoms: _135  and  _137
REMARK   59  A    between atoms: _137  and  _138
REMARK   60  A    between atoms: _137  and  _140
REMARK   61  A    between atoms: _143  and  _145
REMARK   62  A    between atoms: _145  and  _146
REMARK   63  A    between atoms: _145  and  _148
REMARK   64  A    between atoms: _151  and  _153
REMARK   65  A    between atoms: _153  and  _154
REMARK   66  A    between atoms: _156  and  _158
REMARK   67  A    between atoms: _158  and  _159
REMARK   68  A    between atoms: _161  and  _163
REMARK   69  A    between atoms: _163  and  _164
REMARK   70  A    between atoms: _163  and  _166
REMARK   71  A    between atoms: _166  and  _167
REMARK   72  A    between atoms: _170  and  _172
REMARK   73  A    between atoms: _172  and  _173
REMARK   74  A    between atoms: _175  and  _177
REMARK   75  A    between atoms: _177  and  _178
REMARK   76  A    between atoms: _180  and  _182
REMARK   77  A    between atoms: _182  and  _183
REMARK   78  A    between atoms: _182  and  _185
REMARK   79  A    between atoms: _185  and  _186
REMARK   80  A    between atoms: _186  and  _187
REMARK   81  A    between atoms: _189  and  _191
REMARK   82  A    between atoms: _191  and  _192
REMARK   83  A    between atoms: _191  and  _194
REMARK   84  A    between atoms: _194  and  _195
REMARK   85  A    between atoms: _198  and  _200
REMARK   86  A    between atoms: _200  and  _201
REMARK   87  A    between atoms: _200  and  _203
REMARK   88  A    between atoms: _203  and  _204
REMARK   89  A    between atoms: _208  and  _209
REMARK   90  A    between atoms: _214  and  _216
REMARK   91  A    between atoms: _216  and  _217
REMARK   92  A    between atoms: _220  and  _222
REMARK   93  A    between atoms: _222  and  _223
REMARK   94  A    between atoms: _222  and  _225
REMARK   95  A    between atoms: _225  and  _226
REMARK   96  A    between atoms: _231  and  _233
REMARK   97  A    between atoms: _233  and  _234
REMARK   98  A    between atoms: _233  and  _236
REMARK   99  A    between atoms: _236  and  _237
REMARK  100  A    between atoms: _240  and  _242
REMARK  101  A    between atoms: _242  and  _243
REMARK  102  A    between atoms: _242  and  _245
REMARK  103  A    between atoms: _245  and  _246
REMARK  104  A    between atoms: _249  and  _251
REMARK  105  A    between atoms: _251  and  _252
REMARK  106  A    between atoms: _254  and  _256
REMARK  107  A    between atoms: _256  and  _257
REMARK  108  A    between atoms: _256  and  _259
REMARK  109  A    between atoms: _259  and  _260
REMARK  110  A    between atoms: _260  and  _261
REMARK  111  A    between atoms: _261  and  _262
REMARK  112  A    between atoms: _271  and  _273
REMARK  113  A    between atoms: _273  and  _274
REMARK  114  A    between atoms: _273  and  _276
REMARK  115  A    between atoms: _276  and  _277
REMARK  116  A    between atoms: _282  and  _284
REMARK  117  A    between atoms: _284  and  _285
REMARK  118  A    between atoms: _284  and  _287
REMARK  119  A    between atoms: _287  and  _288
REMARK  120  A    between atoms: _288  and  _289
REMARK  121  A    between atoms: _289  and  _290
REMARK  122  A    between atoms: _299  and  _301
REMARK  123  A    between atoms: _301  and  _302
REMARK  124  A    between atoms: _301  and  _304
REMARK  125  A    between atoms: _304  and  _305
REMARK  126  A    between atoms: _311  and  _313
REMARK  127  A    between atoms: _313  and  _314
REMARK  128  A    between atoms: _313  and  _316
REMARK  129  A    between atoms: _316  and  _317
REMARK  130  A    between atoms: _320  and  _322
REMARK  131  A    between atoms: _322  and  _323
REMARK  132  A    between atoms: _322  and  _325
REMARK  133  A    between atoms: _325  and  _326
REMARK  134  A    between atoms: _329  and  _331
REMARK  135  A    between atoms: _331  and  _332
REMARK  136  A    between atoms: _331  and  _334
REMARK  137  A    between atoms: _334  and  _335
REMARK  138  A    between atoms: _338  and  _340
REMARK  139  A    between atoms: _340  and  _341
REMARK  140  A    between atoms: _340  and  _343
REMARK  141  A    between atoms: _343  and  _344
REMARK  142  A    between atoms: _347  and  _349
REMARK  143  A    between atoms: _349  and  _350
REMARK  144  A    between atoms: _352  and  _354
REMARK  145  A    between atoms: _354  and  _355
REMARK  146  A    between atoms: _358  and  _360
REMARK  147  A    between atoms: _360  and  _361
REMARK  148  A    between atoms: _360  and  _363
REMARK  149  A    between atoms: _363  and  _364
REMARK  150  A    between atoms: _367  and  _369
REMARK  151  A    between atoms: _369  and  _370
REMARK  152  A    between atoms: _369  and  _372
REMARK  153  A    between atoms: _372  and  _373
REMARK  154  A    between atoms: _376  and  _378
REMARK  155  A    between atoms: _378  and  _379
REMARK  156  A    between atoms: _378  and  _381
REMARK  157  A    between atoms: _381  and  _382
REMARK  158  A    between atoms: _385  and  _387
REMARK  159  A    between atoms: _387  and  _388
REMARK  160  A    between atoms: _387  and  _390
REMARK  161  A    between atoms: _390  and  _391
REMARK  162  A    between atoms: _394  and  _396
REMARK  163  A    between atoms: _396  and  _397
REMARK  164  A    between atoms: _396  and  _399
REMARK  165  A    between atoms: _399  and  _400
REMARK  166  A    between atoms: _400  and  _401
REMARK  167  A    between atoms: _401  and  _402
REMARK  168  A    between atoms: _402  and  _403
REMARK  169  A    between atoms: _407  and  _409
REMARK  170  A    between atoms: _409  and  _410
REMARK  171  A    between atoms: _409  and  _412
REMARK  172  A    between atoms: _415  and  _417
REMARK  173  A    between atoms: _417  and  _418
REMARK  174  A    between atoms: _417  and  _420
REMARK  175  A    between atoms: _423  and  _425
REMARK  176  A    between atoms: _425  and  _426
REMARK  177  A    between atoms: _428  and  _430
REMARK  178  A    between atoms: _430  and  _431
REMARK  179  A    between atoms: _433  and  _435
REMARK  180  A    between atoms: _435  and  _436
REMARK  181  A    between atoms: _435  and  _438
REMARK  182  A    between atoms: _438  and  _439
REMARK  183  A    between atoms: _442  and  _444
REMARK  184  A    between atoms: _444  and  _445
REMARK  185  A    between atoms: _447  and  _449
REMARK  186  A    between atoms: _449  and  _450
REMARK  187  A    between atoms: _452  and  _454
REMARK  188  A    between atoms: _454  and  _455
REMARK  189  A    between atoms: _454  and  _457
REMARK  190  A    between atoms: _457  and  _458
REMARK  191  A    between atoms: _458  and  _459
REMARK  192  A    between atoms: _461  and  _463
REMARK  193  A    between atoms: _463  and  _464
REMARK  194  A    between atoms: _463  and  _466
REMARK  195  A    between atoms: _466  and  _467
REMARK  196  A    between atoms: _470  and  _472
REMARK  197  A    between atoms: _472  and  _473
REMARK  198  A    between atoms: _472  and  _475
REMARK  199  A    between atoms: _475  and  _476
REMARK  200  A    between atoms: _480  and  _481
REMARK  201  A    between atoms: _486  and  _488
REMARK  202  A    between atoms: _488  and  _489
REMARK  203  A    between atoms: _492  and  _494
REMARK  204  A    between atoms: _494  and  _495
REMARK  205  A    between atoms: _494  and  _497
REMARK  206  A    between atoms: _497  and  _498
REMARK  207  A    between atoms: _503  and  _505
REMARK  208  A    between atoms: _505  and  _506
REMARK  209  A    between atoms: _505  and  _508
REMARK  210  A    between atoms: _508  and  _509
REMARK  211  A    between atoms: _512  and  _514
REMARK  212  A    between atoms: _514  and  _515
REMARK  213  A    between atoms: _514  and  _517
REMARK  214  A    between atoms: _517  and  _518
REMARK  215  A    between atoms: _521  and  _523
REMARK  216  A    between atoms: _523  and  _524
REMARK  217  A    between atoms: _526  and  _528
REMARK  218  A    between atoms: _528  and  _529
REMARK  219  A    between atoms: _528  and  _531
REMARK  220  A    between atoms: _531  and  _532
REMARK  221  A    between atoms: _532  and  _533
REMARK  222  A    between atoms: _533  and  _534
REMARK  223  A    between atoms: _543  and  _545
REMARK  224  A    between atoms: _545  and  _546
REMARK  225  A    between atoms: _545  and  _548
REMARK  226  A    between atoms: _548  and  _549
REMARK                            x       y       z     vdW  Elec       q    Type
REMARK                         _______ _______ _______ _____ _____    ______ ____
ROOT
ATOM      1  NE  ARG A   1     -22.642 -10.229   5.340  0.00  0.00    -0.265 N 
ATOM      2  HE  ARG A   1     -23.331 -10.738   5.929  0.00  0.00    +0.259 HD
ATOM      3  CZ  ARG A   1     -21.621 -10.915   4.834  0.00  0.00    +0.342 C 
ATOM      4  NH2 ARG A   1     -21.505 -12.214   5.084  0.00  0.00    -0.292 N 
ATOM      5 HH21 ARG A   1     -22.212 -12.695   5.675  0.00  0.00    +0.255 HD
ATOM      6 HH22 ARG A   1     -20.707 -12.750   4.688  0.00  0.00    +0.255 HD
ATOM      7  NH1 ARG A   1     -20.737 -10.307   4.041  0.00  0.00    -0.292 N 
ATOM      8 HH11 ARG A   1     -20.846  -9.297   3.819  0.00  0.00    +0.255 HD
ATOM      9 HH12 ARG A   1     -19.939 -10.843   3.645  0.00  0.00    +0.255 HD
ENDROOT
BRANCH   1  10
ATOM     10  CD  ARG A   1     -22.848  -8.809   5.116  0.00  0.00    +0.174 C 
BRANCH  10  11
ATOM     11  CG  ARG A   1     -24.247  -8.361   5.469  0.00  0.00    +0.045 C 
BRANCH  11  12
ATOM     12  CB  ARG A   1     -25.272  -8.806   4.425  0.00  0.00    +0.029 C 
BRANCH  12  13
ATOM     13  CA  ARG A   1     -26.675  -8.303   4.721  0.00  0.00    +0.133 C 
BRANCH  13  14
ATOM     14  N   ARG A   1     -27.147  -8.810   6.032  0.00  0.00    -0.239 NA
ATOM     15  H   ARG A   1     -26.582  -9.502   6.565  0.00  0.00    +0.142 HD
ENDBRANCH  13  14
BRANCH  13  16
ATOM     16  C   ARG A   1     -27.647  -8.748   3.636  0.00  0.00    +0.224 C 
ATOM     17  O   ARG A   1     -28.084  -9.923   3.664  0.00  0.00    -0.287 OA
ENDBRANCH  13  16
ENDBRANCH  12  13
ENDBRANCH  11  12
ENDBRANCH  10  11
ENDBRANCH   1  10
TORSDOF 6
REMARK  Name = ../refined-set-2016/2rkf/2rkf_pocket.pdb
REMARK  226 active torsions:
REMARK  status: ('A' for Active; 'I' for Inactive)
REMARK    1  A    between atoms: _1  and  _3
REMARK    2  A    between atoms: _3  and  _4
REMARK    3  A    between atoms: _3  and  _6
REMARK    4  A    between atoms: _6  and  _7
REMARK    5  A    between atoms: _7  and  _8
REMARK    6  A    between atoms: _8  and  _9
REMARK    7  A    between atoms: _18  and  _20
REMARK    8  A    between atoms: _20  and  _21
REMARK    9  A    between atoms: _20  and  _23
REMARK   10  A    between atoms: _23  and  _24
REMARK   11  A    between atoms: _30  and  _32
REMARK   12  A    between atoms: _32  and  _33
REMARK   13  A    between atoms: _32  and  _35
REMARK   14  A    between atoms: _35  and  _36
REMARK   15  A    between atoms: _39  and  _41
REMARK   16  A    between atoms: _41  and  _42
REMARK   17  A    between atoms: _41  and  _44
REMARK   18  A    between atoms: _44  and  _45
REMARK   19  A    between atoms: _48  and  _50
REMARK   20  A    between atoms: _50  and  _51
REMARK   21  A    between atoms: _50  and  _53
REMARK   22  A    between atoms: _53  and  _54
REMARK   23  A    between atoms: _57  and  _59
REMARK   24  A    between atoms: _59  and  _60
REMARK   25  A    between atoms: _59  and  _62
REMARK   26  A    between atoms: _62  and  _63
REMARK   27  A    between atoms: _66  and  _68
REMARK   28  A    between atoms: _68  and  _69
REMARK   29  A    between atoms: _71  and  _73
REMARK   30  A    between atoms: _73  and  _74
REMARK   31  A    between atoms: _77  and  _79
REMARK   32  A    between atoms: _79  and  _80
REMARK   33  A    between atoms: _79  and  _82
REMARK   34  A    between atoms: _82  and  _83
REMARK   35  A    between atoms: _86  and  _88
REMARK   36  A    between atoms: _88  and  _89
REMARK   37  A    between atoms: _88  and  _91
REMARK   38  A    between atoms: _91  and  _92
REMARK   39  A    between atoms: _95  and  _97
REMARK   40  A    between atoms: _97  and  _98
REMARK   41  A    between atoms: _97  and  _100
REMARK   42  A    between atoms: _100  and  _101
REMARK   43  A    between atoms: _104  and  _106
REMARK   44  A    between atoms: _106  and  _107
REMARK   45  A    between atoms: _106  and  _109
REMARK   46  A    between atoms: _109  and  _110
REMARK   47  A    between atoms: _113  and  _115
REMARK   48  A    between atoms: _115  and  _116
REMARK   49  A    between atoms: _115  and  _118
REMARK   50  A    between atoms: _118  and  _119
REMARK   51  A    between atoms: _122  and  _124
REMARK   52  A    between atoms: _124  and  _125
REMARK   53  A    between atoms: _124  and  _127
REMARK   54  A    between atoms: _127  and  _128
REMARK   55  A    between atoms: _128  and  _129
REMARK   56  A    between atoms: _129  and  _130
REMARK   57  A    between atoms: _130  and  _131
REMARK   58  A    between atoms: _135  and  _137
REMARK   59  A    between atoms: _137  and  _138
REMARK   60  A    between atoms: _137  and  _140
REMARK   61  A    between atoms: _143  and  _145
REMARK   62  A    between atoms: _145  and  _146
REMARK   63  A    between atoms: _145  and  _148
REMARK   64  A    between atoms: _151  and  _153
REMARK   65  A    between atoms: _153  and  _154
REMARK   66  A    between atoms: _156  and  _158
REMARK   67  A    between atoms: _158  and  _159
REMARK   68  A    between atoms: _161  and  _163
REMARK   69  A    between atoms: _163  and  _164
REMARK   70  A    between atoms: _163  and  _166
REMARK   71  A    between atoms: _166  and  _167
REMARK   72  A    between atoms: _170  and  _172
REMARK   73  A    between atoms: _172  and  _173
REMARK   74  A    between atoms: _175  and  _177
REMARK   75  A    between atoms: _177  and  _178
REMARK   76  A    between atoms: _180  and  _182
REMARK   77  A    between atoms: _182  and  _183
REMARK   78  A    between atoms: _182  and  _185
REMARK   79  A    between atoms: _185  and  _186
REMARK   80  A    between atoms: _186  and  _187
REMARK   81  A    between atoms: _189  and  _191
REMARK   82  A    between atoms: _191  and  _192
REMARK   83  A    between atoms: _191  and  _194
REMARK   84  A    between atoms: _194  and  _195
REMARK   85  A    between atoms: _198  and  _200
REMARK   86  A    between atoms: _200  and  _201
REMARK   87  A    between atoms: _200  and  _203
REMARK   88  A    between atoms: _203  and  _204
REMARK   89  A    between atoms: _208  and  _209
REMARK   90  A    between atoms: _214  and  _216
REMARK   91  A    between atoms: _216  and  _217
REMARK   92  A    between atoms: _220  and  _222
REMARK   93  A    between atoms: _222  and  _223
REMARK   94  A    between atoms: _222  and  _225
REMARK   95  A    between atoms: _225  and  _226
REMARK   96  A    between atoms: _231  and  _233
REMARK   97  A    between atoms: _233  and  _234
REMARK   98  A    between atoms: _233  and  _236
REMARK   99  A    between atoms: _236  and  _237
REMARK  100  A    between atoms: _240  and  _242
REMARK  101  A    between atoms: _242  and  _243
REMARK  102  A    between atoms: _242  and  _245
REMARK  103  A    between atoms: _245  and  _246
REMARK  104  A    between atoms: _249  and  _251
REMARK  105  A    between atoms: _251  and  _252
REMARK  106  A    between atoms: _254  and  _256
REMARK  107  A    between atoms: _256  and  _257
REMARK  108  A    between atoms: _256  and  _259
REMARK  109  A    between atoms: _259  and  _260
REMARK  110  A    between atoms: _260  and  _261
REMARK  111  A    between atoms: _261  and  _262
REMARK  112  A    between atoms: _271  and  _273
REMARK  113  A    between atoms: _273  and  _274
REMARK  114  A    between atoms: _273  and  _276
REMARK  115  A    between atoms: _276  and  _277
REMARK  116  A    between atoms: _282  and  _284
REMARK  117  A    between atoms: _284  and  _285
REMARK  118  A    between atoms: _284  and  _287
REMARK  119  A    between atoms: _287  and  _288
REMARK  120  A    between atoms: _288  and  _289
REMARK  121  A    between atoms: _289  and  _290
REMARK  122  A    between atoms: _299  and  _301
REMARK  123  A    between atoms: _301  and  _302
REMARK  124  A    between atoms: _301  and  _304
REMARK  125  A    between atoms: _304  and  _305
REMARK  126  A    between atoms: _311  and  _313
REMARK  127  A    between atoms: _313  and  _314
REMARK  128  A    between atoms: _313  and  _316
REMARK  129  A    between atoms: _316  and  _317
REMARK  130  A    between atoms: _320  and  _322
REMARK  131  A    between atoms: _322  and  _323
REMARK  132  A    between atoms: _322  and  _325
REMARK  133  A    between atoms: _325  and  _326
REMARK  134  A    between atoms: _329  and  _331
REMARK  135  A    between atoms: _331  and  _332
REMARK  136  A    between atoms: _331  and  _334
REMARK  137  A    between atoms: _334  and  _335
REMARK  138  A    between atoms: _338  and  _340
REMARK  139  A    between atoms: _340  and  _341
REMARK  140  A    between atoms: _340  and  _343
REMARK  141  A    between atoms: _343  and  _344
REMARK  142  A    between atoms: _347  and  _349
REMARK  143  A    between atoms: _349  and  _350
REMARK  144  A    between atoms: _352  and  _354
REMARK  145  A    between atoms: _354  and  _355
REMARK  146  A    between atoms: _358  and  _360
REMARK  147  A    between atoms: _360  and  _361
REMARK  148  A    between atoms: _360  and  _363
REMARK  149  A    between atoms: _363  and  _364
REMARK  150  A    between atoms: _367  and  _369
REMARK  151  A    between atoms: _369  and  _370
REMARK  152  A    between atoms: _369  and  _372
REMARK  153  A    between atoms: _372  and  _373
REMARK  154  A    between atoms: _376  and  _378
REMARK  155  A    between atoms: _378  and  _379
REMARK  156  A    between atoms: _378  and  _381
REMARK  157  A    between atoms: _381  and  _382
REMARK  158  A    between atoms: _385  and  _387
REMARK  159  A    between atoms: _387  and  _388
REMARK  160  A    between atoms: _387  and  _390
REMARK  161  A    between atoms: _390  and  _391
REMARK  162  A    between atoms: _394  and  _396
REMARK  163  A    between atoms: _396  and  _397
REMARK  164  A    between atoms: _396  and  _399
REMARK  165  A    between atoms: _399  and  _400
REMARK  166  A    between atoms: _400  and  _401
REMARK  167  A    between atoms: _401  and  _402
REMARK  168  A    between atoms: _402  and  _403
REMARK  169  A    between atoms: _407  and  _409
REMARK  170  A    between atoms: _409  and  _410
REMARK  171  A    between atoms: _409  and  _412
REMARK  172  A    between atoms: _415  and  _417
REMARK  173  A    between atoms: _417  and  _418
REMARK  174  A    between atoms: _417  and  _420
REMARK  175  A    between atoms: _423  and  _425
REMARK  176  A    between atoms: _425  and  _426
REMARK  177  A    between atoms: _428  and  _430
REMARK  178  A    between atoms: _430  and  _431
REMARK  179  A    between atoms: _433  and  _435
REMARK  180  A    between atoms: _435  and  _436
REMARK  181  A    between atoms: _435  and  _438
REMARK  182  A    between atoms: _438  and  _439
REMARK  183  A    between atoms: _442  and  _444
REMARK  184  A    between atoms: _444  and  _445
REMARK  185  A    between atoms: _447  and  _449
REMARK  186  A    between atoms: _449  and  _450
REMARK  187  A    between atoms: _452  and  _454
REMARK  188  A    between atoms: _454  and  _455
REMARK  189  A    between atoms: _454  and  _457
REMARK  190  A    between atoms: _457  and  _458
REMARK  191  A    between atoms: _458  and  _459
REMARK  192  A    between atoms: _461  and  _463
REMARK  193  A    between atoms: _463  and  _464
REMARK  194  A    between atoms: _463  and  _466
REMARK  195  A    between atoms: _466  and  _467
REMARK  196  A    between atoms: _470  and  _472
REMARK  197  A    between atoms: _472  and  _473
REMARK  198  A    between atoms: _472  and  _475
REMARK  199  A    between atoms: _475  and  _476
REMARK  200  A    between atoms: _480  and  _481
REMARK  201  A    between atoms: _486  and  _488
REMARK  202  A    between atoms: _488  and  _489
REMARK  203  A    between atoms: _492  and  _494
REMARK  204  A    between atoms: _494  and  _495
REMARK  205  A    between atoms: _494  and  _497
REMARK  206  A    between atoms: _497  and  _498
REMARK  207  A    between atoms: _503  and  _505
REMARK  208  A    between atoms: _505  and  _506
REMARK  209  A    between atoms: _505  and  _508
REMARK  210  A    between atoms: _508  and  _509
REMARK  211  A    between atoms: _512  and  _514
REMARK  212  A    between atoms: _514  and  _515
REMARK  213  A    between atoms: _514  and  _517
REMARK  214  A    between atoms: _517  and  _518
REMARK  215  A    between atoms: _521  and  _523
REMARK  216  A    between atoms: _523  and  _524
REMARK  217  A    between atoms: _526  and  _528
REMARK  218  A    between atoms: _528  and  _529
REMARK  219  A    between atoms: _528  and  _531
REMARK  220  A    between atoms: _531  and  _532
REMARK  221  A    between atoms: _532  and  _533
REMARK  222  A    between atoms: _533  and  _534
REMARK  223  A    between atoms: _543  and  _545
REMARK  224  A    between atoms: _545  and  _546
REMARK  225  A    between atoms: _545  and  _548
REMARK  226  A    between atoms: _548  and  _549
REMARK                            x       y       z     vdW  Elec       q    Type
REMARK                         _______ _______ _______ _____ _____    ______ ____
ROOT
ATOM      1  CB  PHE A   1     -26.997 -12.208   0.102  0.00  0.00    +0.051 C 
ENDROOT
BRANCH   1   2
ATOM      2  CG  PHE A   1     -25.587 -11.908   0.506  0.00  0.00    -0.020 A 
ATOM      3  CD2 PHE A   1     -25.243 -11.831   1.858  0.00  0.00    -0.004 A 
ATOM      4  CE2 PHE A   1     -23.945 -11.541   2.231  0.00  0.00    -0.000 A 
ATOM      5  CZ  PHE A   1     -22.973 -11.318   1.245  0.00  0.00    -0.000 A 
ATOM      6  CE1 PHE A   1     -23.304 -11.401  -0.097  0.00  0.00    -0.000 A 
ATOM      7  CD1 PHE A   1     -24.610 -11.693  -0.458  0.00  0.00    -0.004 A 
ENDBRANCH   1   2
BRANCH   1   8
ATOM      8  CA  PHE A   1     -27.747 -10.990  -0.448  0.00  0.00    +0.137 C 
BRANCH   8   9
ATOM      9  N   PHE A   1     -28.211 -10.129   0.641  0.00  0.00    -0.239 NA
ATOM     10  H   PHE A   1     -28.360 -10.536   1.586  0.00  0.00    +0.142 HD
ENDBRANCH   8   9
BRANCH   8  11
ATOM     11  C   PHE A   1     -28.901 -11.480  -1.314  0.00  0.00    +0.224 C 
ATOM     12  O   PHE A   1     -29.995 -11.766  -0.796  0.00  0.00    -0.287 OA
ENDBRANCH   8  11
ENDBRANCH   1   8
TORSDOF 4
REMARK  Name = ../refined-set-2016/2rkf/2rkf_pocket.pdb
REMARK  226 active torsions:
REMARK  status: ('A' for Active; 'I' for Inactive)
REMARK    1  A    between atoms: _1  and  _3
REMARK    2  A    between atoms: _3  and  _4
REMARK    3  A    between atoms: _3  and  _6
REMARK    4  A    between atoms: _6  and  _7
REMARK    5  A    between atoms: _7  and  _8
REMARK    6  A    between atoms: _8  and  _9
REMARK    7  A    between atoms: _18  and  _20
REMARK    8  A    between atoms: _20  and  _21
REMARK    9  A    between atoms: _20  and  _23
REMARK   10  A    between atoms: _23  and  _24
REMARK   11  A    between atoms: _30  and  _32
REMARK   12  A    between atoms: _32  and  _33
REMARK   13  A    between atoms: _32  and  _35
REMARK   14  A    between atoms: _35  and  _36
REMARK   15  A    between atoms: _39  and  _41
REMARK   16  A    between atoms: _41  and  _42
REMARK   17  A    between atoms: _41  and  _44
REMARK   18  A    between atoms: _44  and  _45
REMARK   19  A    between atoms: _48  and  _50
REMARK   20  A    between atoms: _50  and  _51
REMARK   21  A    between atoms: _50  and  _53
REMARK   22  A    between atoms: _53  and  _54
REMARK   23  A    between atoms: _57  and  _59
REMARK   24  A    between atoms: _59  and  _60
REMARK   25  A    between atoms: _59  and  _62
REMARK   26  A    between atoms: _62  and  _63
REMARK   27  A    between atoms: _66  and  _68
REMARK   28  A    between atoms: _68  and  _69
REMARK   29  A    between atoms: _71  and  _73
REMARK   30  A    between atoms: _73  and  _74
REMARK   31  A    between atoms: _77  and  _79
REMARK   32  A    between atoms: _79  and  _80
REMARK   33  A    between atoms: _79  and  _82
REMARK   34  A    between atoms: _82  and  _83
REMARK   35  A    between atoms: _86  and  _88
REMARK   36  A    between atoms: _88  and  _89
REMARK   37  A    between atoms: _88  and  _91
REMARK   38  A    between atoms: _91  and  _92
REMARK   39  A    between atoms: _95  and  _97
REMARK   40  A    between atoms: _97  and  _98
REMARK   41  A    between atoms: _97  and  _100
REMARK   42  A    between atoms: _100  and  _101
REMARK   43  A    between atoms: _104  and  _106
REMARK   44  A    between atoms: _106  and  _107
REMARK   45  A    between atoms: _106  and  _109
REMARK   46  A    between atoms: _109  and  _110
REMARK   47  A    between atoms: _113  and  _115
REMARK   48  A    between atoms: _115  and  _116
REMARK   49  A    between atoms: _115  and  _118
REMARK   50  A    between atoms: _118  and  _119
REMARK   51  A    between atoms: _122  and  _124
REMARK   52  A    between atoms: _124  and  _125
REMARK   53  A    between atoms: _124  and  _127
REMARK   54  A    between atoms: _127  and  _128
REMARK   55  A    between atoms: _128  and  _129
REMARK   56  A    between atoms: _129  and  _130
REMARK   57  A    between atoms: _130  and  _131
REMARK   58  A    between atoms: _135  and  _137
REMARK   59  A    between atoms: _137  and  _138
REMARK   60  A    between atoms: _137  and  _140
REMARK   61  A    between atoms: _143  and  _145
REMARK   62  A    between atoms: _145  and  _146
REMARK   63  A    between atoms: _145  and  _148
REMARK   64  A    between atoms: _151  and  _153
REMARK   65  A    between atoms: _153  and  _154
REMARK   66  A    between atoms: _156  and  _158
REMARK   67  A    between atoms: _158  and  _159
REMARK   68  A    between atoms: _161  and  _163
REMARK   69  A    between atoms: _163  and  _164
REMARK   70  A    between atoms: _163  and  _166
REMARK   71  A    between atoms: _166  and  _167
REMARK   72  A    between atoms: _170  and  _172
REMARK   73  A    between atoms: _172  and  _173
REMARK   74  A    between atoms: _175  and  _177
REMARK   75  A    between atoms: _177  and  _178
REMARK   76  A    between atoms: _180  and  _182
REMARK   77  A    between atoms: _182  and  _183
REMARK   78  A    between atoms: _182  and  _185
REMARK   79  A    between atoms: _185  and  _186
REMARK   80  A    between atoms: _186  and  _187
REMARK   81  A    between atoms: _189  and  _191
REMARK   82  A    between atoms: _191  and  _192
REMARK   83  A    between atoms: _191  and  _194
REMARK   84  A    between atoms: _194  and  _195
REMARK   85  A    between atoms: _198  and  _200
REMARK   86  A    between atoms: _200  and  _201
REMARK   87  A    between atoms: _200  and  _203
REMARK   88  A    between atoms: _203  and  _204
REMARK   89  A    between atoms: _208  and  _209
REMARK   90  A    between atoms: _214  and  _216
REMARK   91  A    between atoms: _216  and  _217
REMARK   92  A    between atoms: _220  and  _222
REMARK   93  A    between atoms: _222  and  _223
REMARK   94  A    between atoms: _222  and  _225
REMARK   95  A    between atoms: _225  and  _226
REMARK   96  A    between atoms: _231  and  _233
REMARK   97  A    between atoms: _233  and  _234
REMARK   98  A    between atoms: _233  and  _236
REMARK   99  A    between atoms: _236  and  _237
REMARK  100  A    between atoms: _240  and  _242
REMARK  101  A    between atoms: _242  and  _243
REMARK  102  A    between atoms: _242  and  _245
REMARK  103  A    between atoms: _245  and  _246
REMARK  104  A    between atoms: _249  and  _251
REMARK  105  A    between atoms: _251  and  _252
REMARK  106  A    between atoms: _254  and  _256
REMARK  107  A    between atoms: _256  and  _257
REMARK  108  A    between atoms: _256  and  _259
REMARK  109  A    between atoms: _259  and  _260
REMARK  110  A    between atoms: _260  and  _261
REMARK  111  A    between atoms: _261  and  _262
REMARK  112  A    between atoms: _271  and  _273
REMARK  113  A    between atoms: _273  and  _274
REMARK  114  A    between atoms: _273  and  _276
REMARK  115  A    between atoms: _276  and  _277
REMARK  116  A    between atoms: _282  and  _284
REMARK  117  A    between atoms: _284  and  _285
REMARK  118  A    between atoms: _284  and  _287
REMARK  119  A    between atoms: _287  and  _288
REMARK  120  A    between atoms: _288  and  _289
REMARK  121  A    between atoms: _289  and  _290
REMARK  122  A    between atoms: _299  and  _301
REMARK  123  A    between atoms: _301  and  _302
REMARK  124  A    between atoms: _301  and  _304
REMARK  125  A    between atoms: _304  and  _305
REMARK  126  A    between atoms: _311  and  _313
REMARK  127  A    between atoms: _313  and  _314
REMARK  128  A    between atoms: _313  and  _316
REMARK  129  A    between atoms: _316  and  _317
REMARK  130  A    between atoms: _320  and  _322
REMARK  131  A    between atoms: _322  and  _323
REMARK  132  A    between atoms: _322  and  _325
REMARK  133  A    between atoms: _325  and  _326
REMARK  134  A    between atoms: _329  and  _331
REMARK  135  A    between atoms: _331  and  _332
REMARK  136  A    between atoms: _331  and  _334
REMARK  137  A    between atoms: _334  and  _335
REMARK  138  A    between atoms: _338  and  _340
REMARK  139  A    between atoms: _340  and  _341
REMARK  140  A    between atoms: _340  and  _343
REMARK  141  A    between atoms: _343  and  _344
REMARK  142  A    between atoms: _347  and  _349
REMARK  143  A    between atoms: _349  and  _350
REMARK  144  A    between atoms: _352  and  _354
REMARK  145  A    between atoms: _354  and  _355
REMARK  146  A    between atoms: _358  and  _360
REMARK  147  A    between atoms: _360  and  _361
REMARK  148  A    between atoms: _360  and  _363
REMARK  149  A    between atoms: _363  and  _364
REMARK  150  A    between atoms: _367  and  _369
REMARK  151  A    between atoms: _369  and  _370
REMARK  152  A    between atoms: _369  and  _372
REMARK  153  A    between atoms: _372  and  _373
REMARK  154  A    between atoms: _376  and  _378
REMARK  155  A    between atoms: _378  and  _379
REMARK  156  A    between atoms: _378  and  _381
REMARK  157  A    between atoms: _381  and  _382
REMARK  158  A    between atoms: _385  and  _387
REMARK  159  A    between atoms: _387  and  _388
REMARK  160  A    between atoms: _387  and  _390
REMARK  161  A    between atoms: _390  and  _391
REMARK  162  A    between atoms: _394  and  _396
REMARK  163  A    between atoms: _396  and  _397
REMARK  164  A    between atoms: _396  and  _399
REMARK  165  A    between atoms: _399  and  _400
REMARK  166  A    between atoms: _400  and  _401
REMARK  167  A    between atoms: _401  and  _402
REMARK  168  A    between atoms: _402  and  _403
REMARK  169  A    between atoms: _407  and  _409
REMARK  170  A    between atoms: _409  and  _410
REMARK  171  A    between atoms: _409  and  _412
REMARK  172  A    between atoms: _415  and  _417
REMARK  173  A    between atoms: _417  and  _418
REMARK  174  A    between atoms: _417  and  _420
REMARK  175  A    between atoms: _423  and  _425
REMARK  176  A    between atoms: _425  and  _426
REMARK  177  A    between atoms: _428  and  _430
REMARK  178  A    between atoms: _430  and  _431
REMARK  179  A    between atoms: _433  and  _435
REMARK  180  A    between atoms: _435  and  _436
REMARK  181  A    between atoms: _435  and  _438
REMARK  182  A    between atoms: _438  and  _439
REMARK  183  A    between atoms: _442  and  _444
REMARK  184  A    between atoms: _444  and  _445
REMARK  185  A    between atoms: _447  and  _449
REMARK  186  A    between atoms: _449  and  _450
REMARK  187  A    between atoms: _452  and  _454
REMARK  188  A    between atoms: _454  and  _455
REMARK  189  A    between atoms: _454  and  _457
REMARK  190  A    between atoms: _457  and  _458
REMARK  191  A    between atoms: _458  and  _459
REMARK  192  A    between atoms: _461  and  _463
REMARK  193  A    between atoms: _463  and  _464
REMARK  194  A    between atoms: _463  and  _466
REMARK  195  A    between atoms: _466  and  _467
REMARK  196  A    between atoms: _470  and  _472
REMARK  197  A    between atoms: _472  and  _473
REMARK  198  A    between atoms: _472  and  _475
REMARK  199  A    between atoms: _475  and  _476
REMARK  200  A    between atoms: _480  and  _481
REMARK  201  A    between atoms: _486  and  _488
REMARK  202  A    between atoms: _488  and  _489
REMARK  203  A    between atoms: _492  and  _494
REMARK  204  A    between atoms: _494  and  _495
REMARK  205  A    between atoms: _494  and  _497
REMARK  206  A    between atoms: _497  and  _498
REMARK  207  A    between atoms: _503  and  _505
REMARK  208  A    between atoms: _505  and  _506
REMARK  209  A    between atoms: _505  and  _508
REMARK  210  A    between atoms: _508  and  _509
REMARK  211  A    between atoms: _512  and  _514
REMARK  212  A    between atoms: _514  and  _515
REMARK  213  A    between atoms: _514  and  _517
REMARK  214  A    between atoms: _517  and  _518
REMARK  215  A    between atoms: _521  and  _523
REMARK  216  A    between atoms: _523  and  _524
REMARK  217  A    between atoms: _526  and  _528
REMARK  218  A    between atoms: _528  and  _529
REMARK  219  A    between atoms: _528  and  _531
REMARK  220  A    between atoms: _531  and  _532
REMARK  221  A    between atoms: _532  and  _533
REMARK  222  A    between atoms: _533  and  _534
REMARK  223  A    between atoms: _543  and  _545
REMARK  224  A    between atoms: _545  and  _546
REMARK  225  A    between atoms: _545  and  _548
REMARK  226  A    between atoms: _548  and  _549
REMARK                            x       y       z     vdW  Elec       q    Type
REMARK                         _______ _______ _______ _____ _____    ______ ____
ROOT
ATOM      1  C   GLY A   5     -22.775   2.467  -3.102  0.00  0.00    +0.243 C 
ATOM      2  O   GLY A   5     -21.715   3.084  -3.106  0.00  0.00    -0.273 OA
ATOM      3  N   ALA A   6     -23.105   1.570  -4.032  0.00  0.00    -0.297 N 
ATOM      4  H   ALA A   6     -24.030   1.101  -3.956  0.00  0.00    +0.150 HD
ENDROOT
BRANCH   3   5
ATOM      5  CA  ALA A   6     -22.240   1.212  -5.148  0.00  0.00    +0.149 C 
ATOM      6  CB  ALA A   6     -22.087  -0.321  -5.209  0.00  0.00    +0.031 C 
BRANCH   5   7
ATOM      7  C   ALA A   6     -22.849   1.734  -6.451  0.00  0.00    +0.241 C 
ATOM      8  O   ALA A   6     -24.005   1.465  -6.752  0.00  0.00    -0.273 OA
ATOM      9  N   ASP A   7     -22.079   2.525  -7.197  0.00  0.00    -0.297 N 
ATOM     10  H   ASP A   7     -21.141   2.803  -6.843  0.00  0.00    +0.150 HD
BRANCH   9  11
ATOM     11  CA  ASP A   7     -22.522   3.010  -8.499  0.00  0.00    +0.160 C 
BRANCH  11  12
ATOM     12  C   ASP A   7     -22.605   1.866  -9.515  0.00  0.00    +0.241 C 
ATOM     13  N   ASP A   8     -21.651   0.948  -9.395  0.00  0.00    -0.297 N 
ATOM     14  H   ASP A   8     -21.064   0.974  -8.537  0.00  0.00    +0.150 HD
ATOM     15  O   ASP A   7     -23.480   1.863 -10.397  0.00  0.00    -0.273 OA
BRANCH  13  16
ATOM     16  CA  ASP A   8     -21.365  -0.095 -10.377  0.00  0.00    +0.160 C 
BRANCH  16  17
ATOM     17  C   ASP A   8     -21.435  -1.471  -9.730  0.00  0.00    +0.241 C 
ATOM     18  O   ASP A   8     -21.421  -1.599  -8.504  0.00  0.00    -0.273 OA
ATOM     19  N   THR A   9     -21.455  -2.503 -10.578  0.00  0.00    -0.295 N 
ATOM     20  H   THR A   9     -21.366  -2.312 -11.596  0.00  0.00    +0.150 HD
BRANCH  19  21
ATOM     21  CA  THR A   9     -21.596  -3.882 -10.139  0.00  0.00    +0.176 C 
BRANCH  21  22
ATOM     22  C   THR A   9     -20.227  -4.535 -10.282  0.00  0.00    +0.243 C 
ATOM     23  N   ILE A  10     -19.770  -5.202  -9.229  0.00  0.00    -0.298 N 
ATOM     24  H   ILE A  10     -20.361  -5.262  -8.376  0.00  0.00    +0.150 HD
ATOM     25  O   THR A   9     -19.577  -4.382 -11.319  0.00  0.00    -0.273 OA
BRANCH  23  26
ATOM     26  CA  ILE A  10     -18.449  -5.861  -9.231  0.00  0.00    +0.137 C 
BRANCH  26  27
ATOM     27  C   ILE A  10     -18.570  -7.299  -8.757  0.00  0.00    +0.227 C 
ATOM     28  O   ILE A  10     -19.107  -7.566  -7.663  0.00  0.00    -0.286 OA
ENDBRANCH  26  27
BRANCH  26  29
ATOM     29  CB  ILE A  10     -17.395  -5.180  -8.315  0.00  0.00    +0.026 C 
ATOM     30  CG2 ILE A  10     -15.972  -5.781  -8.584  0.00  0.00    +0.002 C 
BRANCH  29  31
ATOM     31  CG1 ILE A  10     -17.415  -3.656  -8.452  0.00  0.00    +0.002 C 
ATOM     32  CD1 ILE A  10     -16.514  -2.927  -7.439  0.00  0.00    +0.000 C 
ENDBRANCH  29  31
ENDBRANCH  26  29
ENDBRANCH  23  26
ENDBRANCH  21  22
BRANCH  21  33
ATOM     33  CB  THR A   9     -22.687  -4.575 -11.013  0.00  0.00    +0.137 C 
ATOM     34  CG2 THR A   9     -22.712  -6.106 -10.850  0.00  0.00    +0.034 C 
BRANCH  33  35
ATOM     35  OG1 THR A   9     -23.971  -4.035 -10.667  0.00  0.00    -0.382 OA
ATOM     36  HG1 THR A   9     -23.974  -3.060 -10.837  0.00  0.00    +0.210 HD
ENDBRANCH  33  35
ENDBRANCH  21  33
ENDBRANCH  19  21
ENDBRANCH  16  17
BRANCH  16  37
ATOM     37  CB  ASP A   8     -19.941   0.088 -10.949  0.00  0.00    +0.143 C 
BRANCH  37  38
ATOM     38  CG  ASP A   8     -19.709   1.476 -11.550  0.00  0.00    +0.367 C 
ATOM     39  OD2 ASP A   8     -18.603   2.017 -11.355  0.00  0.00    -0.246 OA
ATOM     40  OD1 ASP A   8     -20.609   2.014 -12.226  0.00  0.00    -0.246 OA
ENDBRANCH  37  38
ENDBRANCH  16  37
ENDBRANCH  13  16
ENDBRANCH  11  12
BRANCH  11  41
ATOM     41  CB  ASP A   7     -21.515   4.019  -9.056  0.00  0.00    +0.143 C 
BRANCH  41  42
ATOM     42  CG  ASP A   7     -21.373   5.278  -8.216  0.00  0.00    +0.367 C 
ATOM     43  OD2 ASP A   7     -22.239   5.619  -7.362  0.00  0.00    -0.246 OA
ATOM     44  OD1 ASP A   7     -20.365   5.985  -8.447  0.00  0.00    -0.246 OA
ENDBRANCH  41  42
ENDBRANCH  11  41
ENDBRANCH   9  11
ENDBRANCH   5   7
ENDBRANCH   3   5
BRANCH   1  45
ATOM     45  CA  GLY A   5     -23.767   2.697  -1.973  0.00  0.00    +0.176 C 
BRANCH  45  47
ATOM     46  C   THR A   4     -26.021   2.183  -2.767  0.00  0.00    +0.243 C 
ATOM     47  N   GLY A   5     -24.953   1.853  -2.025  0.00  0.00    -0.295 N 
ATOM     48  H   GLY A   5     -24.972   0.972  -1.473  0.00  0.00    +0.150 HD
ATOM     49  O   THR A   4     -26.088   3.218  -3.400  0.00  0.00    -0.273 OA
BRANCH  46  50
ATOM     50  CA  THR A   4     -27.192   1.193  -2.788  0.00  0.00    +0.176 C 
BRANCH  50  52
ATOM     51  C   ASP A   3     -25.976  -0.914  -3.102  0.00  0.00    +0.241 C 
ATOM     52  N   THR A   4     -26.782  -0.160  -2.373  0.00  0.00    -0.295 N 
ATOM     53  H   THR A   4     -27.140  -0.537  -1.472  0.00  0.00    +0.150 HD
ATOM     54  O   ASP A   3     -25.459  -0.540  -4.163  0.00  0.00    -0.273 OA
BRANCH  51  55
ATOM     55  CA  ASP A   3     -25.660  -2.285  -2.522  0.00  0.00    +0.160 C 
BRANCH  55  58
ATOM     56  C   LEU A   2     -27.146  -4.208  -2.393  0.00  0.00    +0.241 C 
ATOM     57  O   LEU A   2     -27.328  -4.048  -1.188  0.00  0.00    -0.273 OA
ATOM     58  N   ASP A   3     -26.477  -3.326  -3.136  0.00  0.00    -0.297 N 
ATOM     59  H   ASP A   3     -26.539  -3.381  -4.173  0.00  0.00    +0.150 HD
BRANCH  56  60
ATOM     60  CA  LEU A   2     -27.675  -5.469  -3.099  0.00  0.00    +0.149 C 
BRANCH  60  62
ATOM     61  C   LEU A   1     -25.692  -6.859  -2.879  0.00  0.00    +0.238 C 
ATOM     62  N   LEU A   2     -26.962  -6.640  -2.540  0.00  0.00    -0.297 N 
ATOM     63  H   LEU A   2     -27.449  -7.287  -1.887  0.00  0.00    +0.150 HD
ATOM     64  O   LEU A   1     -25.133  -6.239  -3.796  0.00  0.00    -0.274 OA
BRANCH  61  65
ATOM     65  CA  LEU A   1     -24.923  -7.934  -2.078  0.00  0.00    +0.145 C 
BRANCH  65  66
ATOM     66  N   LEU A   1     -24.329  -8.863  -2.993  0.00  0.00    -0.238 NA
ATOM     67  H   LEU A   1     -23.342  -8.716  -3.287  0.00  0.00    +0.142 HD
ENDBRANCH  65  66
BRANCH  65  68
ATOM     68  CB  LEU A   1     -23.773  -7.335  -1.246  0.00  0.00    +0.026 C 
BRANCH  68  69
ATOM     69  CG  LEU A   1     -23.932  -6.360  -0.094  0.00  0.00    +0.002 C 
ATOM     70  CD2 LEU A   1     -24.572  -7.042   1.084  0.00  0.00    +0.000 C 
ATOM     71  CD1 LEU A   1     -22.557  -5.817   0.307  0.00  0.00    +0.000 C 
ENDBRANCH  68  69
ENDBRANCH  65  68
ENDBRANCH  61  65
ENDBRANCH  60  62
BRANCH  60  72
ATOM     72  CB  LEU A   2     -29.185  -5.581  -2.871  0.00  0.00    +0.029 C 
BRANCH  72  73
ATOM     73  CG  LEU A   2     -29.925  -6.778  -3.444  0.00  0.00    +0.002 C 
ATOM     74  CD2 LEU A   2     -31.376  -6.704  -2.967  0.00  0.00    +0.000 C 
ATOM     75  CD1 LEU A   2     -29.843  -6.763  -4.966  0.00  0.00    +0.000 C 
ENDBRANCH  72  73
ENDBRANCH  60  72
ENDBRANCH  56  60
ENDBRANCH  55  58
BRANCH  55  76
ATOM     76  CB  ASP A   3     -24.183  -2.614  -2.744  0.00  0.00    +0.143 C 
BRANCH  76  77
ATOM     77  CG  ASP A   3     -23.262  -1.646  -2.066  0.00  0.00    +0.367 C 
ATOM     78  OD2 ASP A   3     -23.729  -0.742  -1.352  0.00  0.00    -0.246 OA
ATOM     79  OD1 ASP A   3     -22.044  -1.811  -2.240  0.00  0.00    -0.246 OA
ENDBRANCH  76  77
ENDBRANCH  55  76
ENDBRANCH  51  55
ENDBRANCH  50  52
BRANCH  50  80
ATOM     80  CB  THR A   4     -28.342   1.700  -1.920  0.00  0.00    +0.137 C 
ATOM     81  CG2 THR A   4     -29.544   0.753  -2.048  0.00  0.00    +0.034 C 
BRANCH  80  82
ATOM     82  OG1 THR A   4     -27.923   1.675  -0.550  0.00  0.00    -0.382 OA
ATOM     83  HG1 THR A   4     -27.131   2.259  -0.438  0.00  0.00    +0.210 HD
ENDBRANCH  80  82
ENDBRANCH  50  80
ENDBRANCH  46  50
ENDBRANCH  45  47
ENDBRANCH   1  45
TORSDOF 36
REMARK  Name = ../refined-set-2016/2rkf/2rkf_pocket.pdb
REMARK  226 active torsions:
REMARK  status: ('A' for Active; 'I' for Inactive)
REMARK    1  A    between atoms: _1  and  _3
REMARK    2  A    between atoms: _3  and  _4
REMARK    3  A    between atoms: _3  and  _6
REMARK    4  A    between atoms: _6  and  _7
REMARK    5  A    between atoms: _7  and  _8
REMARK    6  A    between atoms: _8  and  _9
REMARK    7  A    between atoms: _18  and  _20
REMARK    8  A    between atoms: _20  and  _21
REMARK    9  A    between atoms: _20  and  _23
REMARK   10  A    between atoms: _23  and  _24
REMARK   11  A    between atoms: _30  and  _32
REMARK   12  A    between atoms: _32  and  _33
REMARK   13  A    between atoms: _32  and  _35
REMARK   14  A    between atoms: _35  and  _36
REMARK   15  A    between atoms: _39  and  _41
REMARK   16  A    between atoms: _41  and  _42
REMARK   17  A    between atoms: _41  and  _44
REMARK   18  A    between atoms: _44  and  _45
REMARK   19  A    between atoms: _48  and  _50
REMARK   20  A    between atoms: _50  and  _51
REMARK   21  A    between atoms: _50  and  _53
REMARK   22  A    between atoms: _53  and  _54
REMARK   23  A    between atoms: _57  and  _59
REMARK   24  A    between atoms: _59  and  _60
REMARK   25  A    between atoms: _59  and  _62
REMARK   26  A    between atoms: _62  and  _63
REMARK   27  A    between atoms: _66  and  _68
REMARK   28  A    between atoms: _68  and  _69
REMARK   29  A    between atoms: _71  and  _73
REMARK   30  A    between atoms: _73  and  _74
REMARK   31  A    between atoms: _77  and  _79
REMARK   32  A    between atoms: _79  and  _80
REMARK   33  A    between atoms: _79  and  _82
REMARK   34  A    between atoms: _82  and  _83
REMARK   35  A    between atoms: _86  and  _88
REMARK   36  A    between atoms: _88  and  _89
REMARK   37  A    between atoms: _88  and  _91
REMARK   38  A    between atoms: _91  and  _92
REMARK   39  A    between atoms: _95  and  _97
REMARK   40  A    between atoms: _97  and  _98
REMARK   41  A    between atoms: _97  and  _100
REMARK   42  A    between atoms: _100  and  _101
REMARK   43  A    between atoms: _104  and  _106
REMARK   44  A    between atoms: _106  and  _107
REMARK   45  A    between atoms: _106  and  _109
REMARK   46  A    between atoms: _109  and  _110
REMARK   47  A    between atoms: _113  and  _115
REMARK   48  A    between atoms: _115  and  _116
REMARK   49  A    between atoms: _115  and  _118
REMARK   50  A    between atoms: _118  and  _119
REMARK   51  A    between atoms: _122  and  _124
REMARK   52  A    between atoms: _124  and  _125
REMARK   53  A    between atoms: _124  and  _127
REMARK   54  A    between atoms: _127  and  _128
REMARK   55  A    between atoms: _128  and  _129
REMARK   56  A    between atoms: _129  and  _130
REMARK   57  A    between atoms: _130  and  _131
REMARK   58  A    between atoms: _135  and  _137
REMARK   59  A    between atoms: _137  and  _138
REMARK   60  A    between atoms: _137  and  _140
REMARK   61  A    between atoms: _143  and  _145
REMARK   62  A    between atoms: _145  and  _146
REMARK   63  A    between atoms: _145  and  _148
REMARK   64  A    between atoms: _151  and  _153
REMARK   65  A    between atoms: _153  and  _154
REMARK   66  A    between atoms: _156  and  _158
REMARK   67  A    between atoms: _158  and  _159
REMARK   68  A    between atoms: _161  and  _163
REMARK   69  A    between atoms: _163  and  _164
REMARK   70  A    between atoms: _163  and  _166
REMARK   71  A    between atoms: _166  and  _167
REMARK   72  A    between atoms: _170  and  _172
REMARK   73  A    between atoms: _172  and  _173
REMARK   74  A    between atoms: _175  and  _177
REMARK   75  A    between atoms: _177  and  _178
REMARK   76  A    between atoms: _180  and  _182
REMARK   77  A    between atoms: _182  and  _183
REMARK   78  A    between atoms: _182  and  _185
REMARK   79  A    between atoms: _185  and  _186
REMARK   80  A    between atoms: _186  and  _187
REMARK   81  A    between atoms: _189  and  _191
REMARK   82  A    between atoms: _191  and  _192
REMARK   83  A    between atoms: _191  and  _194
REMARK   84  A    between atoms: _194  and  _195
REMARK   85  A    between atoms: _198  and  _200
REMARK   86  A    between atoms: _200  and  _201
REMARK   87  A    between atoms: _200  and  _203
REMARK   88  A    between atoms: _203  and  _204
REMARK   89  A    between atoms: _208  and  _209
REMARK   90  A    between atoms: _214  and  _216
REMARK   91  A    between atoms: _216  and  _217
REMARK   92  A    between atoms: _220  and  _222
REMARK   93  A    between atoms: _222  and  _223
REMARK   94  A    between atoms: _222  and  _225
REMARK   95  A    between atoms: _225  and  _226
REMARK   96  A    between atoms: _231  and  _233
REMARK   97  A    between atoms: _233  and  _234
REMARK   98  A    between atoms: _233  and  _236
REMARK   99  A    between atoms: _236  and  _237
REMARK  100  A    between atoms: _240  and  _242
REMARK  101  A    between atoms: _242  and  _243
REMARK  102  A    between atoms: _242  and  _245
REMARK  103  A    between atoms: _245  and  _246
REMARK  104  A    between atoms: _249  and  _251
REMARK  105  A    between atoms: _251  and  _252
REMARK  106  A    between atoms: _254  and  _256
REMARK  107  A    between atoms: _256  and  _257
REMARK  108  A    between atoms: _256  and  _259
REMARK  109  A    between atoms: _259  and  _260
REMARK  110  A    between atoms: _260  and  _261
REMARK  111  A    between atoms: _261  and  _262
REMARK  112  A    between atoms: _271  and  _273
REMARK  113  A    between atoms: _273  and  _274
REMARK  114  A    between atoms: _273  and  _276
REMARK  115  A    between atoms: _276  and  _277
REMARK  116  A    between atoms: _282  and  _284
REMARK  117  A    between atoms: _284  and  _285
REMARK  118  A    between atoms: _284  and  _287
REMARK  119  A    between atoms: _287  and  _288
REMARK  120  A    between atoms: _288  and  _289
REMARK  121  A    between atoms: _289  and  _290
REMARK  122  A    between atoms: _299  and  _301
REMARK  123  A    between atoms: _301  and  _302
REMARK  124  A    between atoms: _301  and  _304
REMARK  125  A    between atoms: _304  and  _305
REMARK  126  A    between atoms: _311  and  _313
REMARK  127  A    between atoms: _313  and  _314
REMARK  128  A    between atoms: _313  and  _316
REMARK  129  A    between atoms: _316  and  _317
REMARK  130  A    between atoms: _320  and  _322
REMARK  131  A    between atoms: _322  and  _323
REMARK  132  A    between atoms: _322  and  _325
REMARK  133  A    between atoms: _325  and  _326
REMARK  134  A    between atoms: _329  and  _331
REMARK  135  A    between atoms: _331  and  _332
REMARK  136  A    between atoms: _331  and  _334
REMARK  137  A    between atoms: _334  and  _335
REMARK  138  A    between atoms: _338  and  _340
REMARK  139  A    between atoms: _340  and  _341
REMARK  140  A    between atoms: _340  and  _343
REMARK  141  A    between atoms: _343  and  _344
REMARK  142  A    between atoms: _347  and  _349
REMARK  143  A    between atoms: _349  and  _350
REMARK  144  A    between atoms: _352  and  _354
REMARK  145  A    between atoms: _354  and  _355
REMARK  146  A    between atoms: _358  and  _360
REMARK  147  A    between atoms: _360  and  _361
REMARK  148  A    between atoms: _360  and  _363
REMARK  149  A    between atoms: _363  and  _364
REMARK  150  A    between atoms: _367  and  _369
REMARK  151  A    between atoms: _369  and  _370
REMARK  152  A    between atoms: _369  and  _372
REMARK  153  A    between atoms: _372  and  _373
REMARK  154  A    between atoms: _376  and  _378
REMARK  155  A    between atoms: _378  and  _379
REMARK  156  A    between atoms: _378  and  _381
REMARK  157  A    between atoms: _381  and  _382
REMARK  158  A    between atoms: _385  and  _387
REMARK  159  A    between atoms: _387  and  _388
REMARK  160  A    between atoms: _387  and  _390
REMARK  161  A    between atoms: _390  and  _391
REMARK  162  A    between atoms: _394  and  _396
REMARK  163  A    between atoms: _396  and  _397
REMARK  164  A    between atoms: _396  and  _399
REMARK  165  A    between atoms: _399  and  _400
REMARK  166  A    between atoms: _400  and  _401
REMARK  167  A    between atoms: _401  and  _402
REMARK  168  A    between atoms: _402  and  _403
REMARK  169  A    between atoms: _407  and  _409
REMARK  170  A    between atoms: _409  and  _410
REMARK  171  A    between atoms: _409  and  _412
REMARK  172  A    between atoms: _415  and  _417
REMARK  173  A    between atoms: _417  and  _418
REMARK  174  A    between atoms: _417  and  _420
REMARK  175  A    between atoms: _423  and  _425
REMARK  176  A    between atoms: _425  and  _426
REMARK  177  A    between atoms: _428  and  _430
REMARK  178  A    between atoms: _430  and  _431
REMARK  179  A    between atoms: _433  and  _435
REMARK  180  A    between atoms: _435  and  _436
REMARK  181  A    between atoms: _435  and  _438
REMARK  182  A    between atoms: _438  and  _439
REMARK  183  A    between atoms: _442  and  _444
REMARK  184  A    between atoms: _444  and  _445
REMARK  185  A    between atoms: _447  and  _449
REMARK  186  A    between atoms: _449  and  _450
REMARK  187  A    between atoms: _452  and  _454
REMARK  188  A    between atoms: _454  and  _455
REMARK  189  A    between atoms: _454  and  _457
REMARK  190  A    between atoms: _457  and  _458
REMARK  191  A    between atoms: _458  and  _459
REMARK  192  A    between atoms: _461  and  _463
REMARK  193  A    between atoms: _463  and  _464
REMARK  194  A    between atoms: _463  and  _466
REMARK  195  A    between atoms: _466  and  _467
REMARK  196  A    between atoms: _470  and  _472
REMARK  197  A    between atoms: _472  and  _473
REMARK  198  A    between atoms: _472  and  _475
REMARK  199  A    between atoms: _475  and  _476
REMARK  200  A    between atoms: _480  and  _481
REMARK  201  A    between atoms: _486  and  _488
REMARK  202  A    between atoms: _488  and  _489
REMARK  203  A    between atoms: _492  and  _494
REMARK  204  A    between atoms: _494  and  _495
REMARK  205  A    between atoms: _494  and  _497
REMARK  206  A    between atoms: _497  and  _498
REMARK  207  A    between atoms: _503  and  _505
REMARK  208  A    between atoms: _505  and  _506
REMARK  209  A    between atoms: _505  and  _508
REMARK  210  A    between atoms: _508  and  _509
REMARK  211  A    between atoms: _512  and  _514
REMARK  212  A    between atoms: _514  and  _515
REMARK  213  A    between atoms: _514  and  _517
REMARK  214  A    between atoms: _517  and  _518
REMARK  215  A    between atoms: _521  and  _523
REMARK  216  A    between atoms: _523  and  _524
REMARK  217  A    between atoms: _526  and  _528
REMARK  218  A    between atoms: _528  and  _529
REMARK  219  A    between atoms: _528  and  _531
REMARK  220  A    between atoms: _531  and  _532
REMARK  221  A    between atoms: _532  and  _533
REMARK  222  A    between atoms: _533  and  _534
REMARK  223  A    between atoms: _543  and  _545
REMARK  224  A    between atoms: _545  and  _546
REMARK  225  A    between atoms: _545  and  _548
REMARK  226  A    between atoms: _548  and  _549
REMARK                            x       y       z     vdW  Elec       q    Type
REMARK                         _______ _______ _______ _____ _____    ______ ____
ROOT
ATOM      1  C   VAL A   3     -11.968   1.735  -7.578  0.00  0.00    +0.241 C 
ATOM      2  O   VAL A   3     -11.122   1.023  -7.019  0.00  0.00    -0.273 OA
ATOM      3  N   GLY A   4     -12.446   2.851  -7.039  0.00  0.00    -0.295 N 
ATOM      4  H   GLY A   4     -13.177   3.393  -7.542  0.00  0.00    +0.150 HD
ENDROOT
BRANCH   3   5
ATOM      5  CA  GLY A   4     -11.958   3.322  -5.755  0.00  0.00    +0.176 C 
BRANCH   5   6
ATOM      6  C   GLY A   4     -12.978   3.119  -4.661  0.00  0.00    +0.243 C 
ATOM      7  N   GLY A   5     -12.615   2.354  -3.644  0.00  0.00    -0.295 N 
ATOM      8  H   GLY A   5     -11.704   1.854  -3.677  0.00  0.00    +0.150 HD
ATOM      9  O   GLY A   4     -14.083   3.638  -4.736  0.00  0.00    -0.273 OA
BRANCH   7  10
ATOM     10  CA  GLY A   5     -13.470   2.205  -2.487  0.00  0.00    +0.176 C 
BRANCH  10  11
ATOM     11  C   GLY A   5     -12.814   2.739  -1.233  0.00  0.00    +0.243 C 
ATOM     12  N   ILE A   6     -13.336   2.303  -0.098  0.00  0.00    -0.297 N 
ATOM     13  H   ILE A   6     -14.260   1.825  -0.119  0.00  0.00    +0.150 HD
ATOM     14  O   GLY A   5     -11.864   3.526  -1.285  0.00  0.00    -0.273 OA
BRANCH  12  15
ATOM     15  CA  ILE A   6     -12.661   2.470   1.175  0.00  0.00    +0.149 C 
BRANCH  15  16
ATOM     16  C   ILE A   6     -11.417   1.583   1.114  0.00  0.00    +0.241 C 
ATOM     17  N   GLY A   7     -10.312   2.069   1.663  0.00  0.00    -0.295 N 
ATOM     18  H   GLY A   7     -10.345   2.983   2.159  0.00  0.00    +0.150 HD
ATOM     19  O   ILE A   6     -11.451   0.494   0.526  0.00  0.00    -0.273 OA
BRANCH  17  20
ATOM     20  CA  GLY A   7      -9.054   1.342   1.582  0.00  0.00    +0.176 C 
BRANCH  20  21
ATOM     21  C   GLY A   7      -8.246   1.646   0.334  0.00  0.00    +0.243 C 
ATOM     22  O   GLY A   7      -7.055   1.363   0.290  0.00  0.00    -0.273 OA
ATOM     23  N   GLY A   8      -8.877   2.218  -0.688  0.00  0.00    -0.296 N 
ATOM     24  H   GLY A   8      -9.903   2.378  -0.639  0.00  0.00    +0.150 HD
BRANCH  23  25
ATOM     25  CA  GLY A   8      -8.138   2.620  -1.873  0.00  0.00    +0.163 C 
BRANCH  25  26
ATOM     26  C   GLY A   8      -8.722   2.108  -3.165  0.00  0.00    +0.229 C 
ATOM     27  O   GLY A   8      -9.949   2.027  -3.307  0.00  0.00    -0.286 OA
ENDBRANCH  25  26
ENDBRANCH  23  25
ENDBRANCH  20  21
ENDBRANCH  17  20
ENDBRANCH  15  16
BRANCH  15  28
ATOM     28  CB  ILE A   6     -13.612   2.095   2.333  0.00  0.00    +0.027 C 
ATOM     29  CG2 ILE A   6     -12.862   1.850   3.644  0.00  0.00    +0.002 C 
BRANCH  28  30
ATOM     30  CG1 ILE A   6     -14.702   3.173   2.457  0.00  0.00    +0.002 C 
ATOM     31  CD1 ILE A   6     -15.332   3.279   3.814  0.00  0.00    +0.000 C 
ENDBRANCH  28  30
ENDBRANCH  15  28
ENDBRANCH  12  15
ENDBRANCH  10  11
ENDBRANCH   7  10
ENDBRANCH   5   6
ENDBRANCH   3   5
BRANCH   1  32
ATOM     32  CA  VAL A   3     -12.522   1.354  -8.941  0.00  0.00    +0.149 C 
BRANCH  32  34
ATOM     33  C   VAL A   2     -11.017   1.540 -10.857  0.00  0.00    +0.241 C 
ATOM     34  N   VAL A   3     -11.433   0.869  -9.792  0.00  0.00    -0.297 N 
ATOM     35  H   VAL A   3     -10.971  -0.031  -9.553  0.00  0.00    +0.150 HD
ATOM     36  O   VAL A   2     -11.556   2.572 -11.249  0.00  0.00    -0.273 OA
BRANCH  33  37
ATOM     37  CA  VAL A   2      -9.830   0.954 -11.607  0.00  0.00    +0.148 C 
BRANCH  37  39
ATOM     38  C   LYS A   1     -10.088  -0.170 -13.761  0.00  0.00    +0.238 C 
ATOM     39  N   VAL A   2     -10.126   0.943 -13.036  0.00  0.00    -0.297 N 
ATOM     40  H   VAL A   2     -10.376   1.838 -13.503  0.00  0.00    +0.150 HD
ATOM     41  O   LYS A   1      -9.681  -1.247 -13.320  0.00  0.00    -0.274 OA
BRANCH  38  42
ATOM     42  CA  LYS A   1     -10.572  -0.048 -15.201  0.00  0.00    +0.145 C 
BRANCH  42  43
ATOM     43  N   LYS A   1      -9.943  -1.088 -16.001  0.00  0.00    -0.238 NA
ATOM     44  H   LYS A   1      -9.681  -1.981 -15.537  0.00  0.00    +0.142 HD
ENDBRANCH  42  43
BRANCH  42  45
ATOM     45  CB  LYS A   1     -12.100  -0.192 -15.249  0.00  0.00    +0.026 C 
BRANCH  45  46
ATOM     46  CG  LYS A   1     -12.861   1.067 -14.856  0.00  0.00    -0.000 C 
BRANCH  46  47
ATOM     47  CD  LYS A   1     -14.313   0.780 -14.481  0.00  0.00    -0.024 C 
BRANCH  47  48
ATOM     48  CE  LYS A   1     -14.992   2.050 -13.973  0.00  0.00    -0.086 C 
BRANCH  48  49
ATOM     49  NZ  LYS A   1     -16.358   1.809 -13.428  0.00  0.00    +0.380 N 
ATOM     50  HZ1 LYS A   1     -16.299   1.144 -12.631  0.00  0.00    -0.089 HD
ATOM     51  HZ2 LYS A   1     -16.763   2.709 -13.101  0.00  0.00    -0.089 HD
ATOM     52  HZ3 LYS A   1     -16.961   1.407 -14.173  0.00  0.00    -0.089 HD
ENDBRANCH  48  49
ENDBRANCH  47  48
ENDBRANCH  46  47
ENDBRANCH  45  46
ENDBRANCH  42  45
ENDBRANCH  38  42
ENDBRANCH  37  39
BRANCH  37  53
ATOM     53  CB  VAL A   2      -8.523   1.750 -11.268  0.00  0.00    +0.027 C 
ATOM     54  CG2 VAL A   2      -7.293   0.926 -11.583  0.00  0.00    +0.002 C 
ATOM     55  CG1 VAL A   2      -8.473   3.047 -12.029  0.00  0.00    +0.002 C 
ENDBRANCH  37  53
ENDBRANCH  33  37
ENDBRANCH  32  34
BRANCH  32  56
ATOM     56  CB  VAL A   3     -13.626   0.294  -8.747  0.00  0.00    +0.027 C 
ATOM     57  CG2 VAL A   3     -13.018  -1.048  -8.399  0.00  0.00    +0.002 C 
ATOM     58  CG1 VAL A   3     -14.456   0.162  -9.996  0.00  0.00    +0.002 C 
ENDBRANCH  32  56
ENDBRANCH   1  32
TORSDOF 25
REMARK  Name = ../refined-set-2016/2rkf/2rkf_pocket.pdb
REMARK  226 active torsions:
REMARK  status: ('A' for Active; 'I' for Inactive)
REMARK    1  A    between atoms: _1  and  _3
REMARK    2  A    between atoms: _3  and  _4
REMARK    3  A    between atoms: _3  and  _6
REMARK    4  A    between atoms: _6  and  _7
REMARK    5  A    between atoms: _7  and  _8
REMARK    6  A    between atoms: _8  and  _9
REMARK    7  A    between atoms: _18  and  _20
REMARK    8  A    between atoms: _20  and  _21
REMARK    9  A    between atoms: _20  and  _23
REMARK   10  A    between atoms: _23  and  _24
REMARK   11  A    between atoms: _30  and  _32
REMARK   12  A    between atoms: _32  and  _33
REMARK   13  A    between atoms: _32  and  _35
REMARK   14  A    between atoms: _35  and  _36
REMARK   15  A    between atoms: _39  and  _41
REMARK   16  A    between atoms: _41  and  _42
REMARK   17  A    between atoms: _41  and  _44
REMARK   18  A    between atoms: _44  and  _45
REMARK   19  A    between atoms: _48  and  _50
REMARK   20  A    between atoms: _50  and  _51
REMARK   21  A    between atoms: _50  and  _53
REMARK   22  A    between atoms: _53  and  _54
REMARK   23  A    between atoms: _57  and  _59
REMARK   24  A    between atoms: _59  and  _60
REMARK   25  A    between atoms: _59  and  _62
REMARK   26  A    between atoms: _62  and  _63
REMARK   27  A    between atoms: _66  and  _68
REMARK   28  A    between atoms: _68  and  _69
REMARK   29  A    between atoms: _71  and  _73
REMARK   30  A    between atoms: _73  and  _74
REMARK   31  A    between atoms: _77  and  _79
REMARK   32  A    between atoms: _79  and  _80
REMARK   33  A    between atoms: _79  and  _82
REMARK   34  A    between atoms: _82  and  _83
REMARK   35  A    between atoms: _86  and  _88
REMARK   36  A    between atoms: _88  and  _89
REMARK   37  A    between atoms: _88  and  _91
REMARK   38  A    between atoms: _91  and  _92
REMARK   39  A    between atoms: _95  and  _97
REMARK   40  A    between atoms: _97  and  _98
REMARK   41  A    between atoms: _97  and  _100
REMARK   42  A    between atoms: _100  and  _101
REMARK   43  A    between atoms: _104  and  _106
REMARK   44  A    between atoms: _106  and  _107
REMARK   45  A    between atoms: _106  and  _109
REMARK   46  A    between atoms: _109  and  _110
REMARK   47  A    between atoms: _113  and  _115
REMARK   48  A    between atoms: _115  and  _116
REMARK   49  A    between atoms: _115  and  _118
REMARK   50  A    between atoms: _118  and  _119
REMARK   51  A    between atoms: _122  and  _124
REMARK   52  A    between atoms: _124  and  _125
REMARK   53  A    between atoms: _124  and  _127
REMARK   54  A    between atoms: _127  and  _128
REMARK   55  A    between atoms: _128  and  _129
REMARK   56  A    between atoms: _129  and  _130
REMARK   57  A    between atoms: _130  and  _131
REMARK   58  A    between atoms: _135  and  _137
REMARK   59  A    between atoms: _137  and  _138
REMARK   60  A    between atoms: _137  and  _140
REMARK   61  A    between atoms: _143  and  _145
REMARK   62  A    between atoms: _145  and  _146
REMARK   63  A    between atoms: _145  and  _148
REMARK   64  A    between atoms: _151  and  _153
REMARK   65  A    between atoms: _153  and  _154
REMARK   66  A    between atoms: _156  and  _158
REMARK   67  A    between atoms: _158  and  _159
REMARK   68  A    between atoms: _161  and  _163
REMARK   69  A    between atoms: _163  and  _164
REMARK   70  A    between atoms: _163  and  _166
REMARK   71  A    between atoms: _166  and  _167
REMARK   72  A    between atoms: _170  and  _172
REMARK   73  A    between atoms: _172  and  _173
REMARK   74  A    between atoms: _175  and  _177
REMARK   75  A    between atoms: _177  and  _178
REMARK   76  A    between atoms: _180  and  _182
REMARK   77  A    between atoms: _182  and  _183
REMARK   78  A    between atoms: _182  and  _185
REMARK   79  A    between atoms: _185  and  _186
REMARK   80  A    between atoms: _186  and  _187
REMARK   81  A    between atoms: _189  and  _191
REMARK   82  A    between atoms: _191  and  _192
REMARK   83  A    between atoms: _191  and  _194
REMARK   84  A    between atoms: _194  and  _195
REMARK   85  A    between atoms: _198  and  _200
REMARK   86  A    between atoms: _200  and  _201
REMARK   87  A    between atoms: _200  and  _203
REMARK   88  A    between atoms: _203  and  _204
REMARK   89  A    between atoms: _208  and  _209
REMARK   90  A    between atoms: _214  and  _216
REMARK   91  A    between atoms: _216  and  _217
REMARK   92  A    between atoms: _220  and  _222
REMARK   93  A    between atoms: _222  and  _223
REMARK   94  A    between atoms: _222  and  _225
REMARK   95  A    between atoms: _225  and  _226
REMARK   96  A    between atoms: _231  and  _233
REMARK   97  A    between atoms: _233  and  _234
REMARK   98  A    between atoms: _233  and  _236
REMARK   99  A    between atoms: _236  and  _237
REMARK  100  A    between atoms: _240  and  _242
REMARK  101  A    between atoms: _242  and  _243
REMARK  102  A    between atoms: _242  and  _245
REMARK  103  A    between atoms: _245  and  _246
REMARK  104  A    between atoms: _249  and  _251
REMARK  105  A    between atoms: _251  and  _252
REMARK  106  A    between atoms: _254  and  _256
REMARK  107  A    between atoms: _256  and  _257
REMARK  108  A    between atoms: _256  and  _259
REMARK  109  A    between atoms: _259  and  _260
REMARK  110  A    between atoms: _260  and  _261
REMARK  111  A    between atoms: _261  and  _262
REMARK  112  A    between atoms: _271  and  _273
REMARK  113  A    between atoms: _273  and  _274
REMARK  114  A    between atoms: _273  and  _276
REMARK  115  A    between atoms: _276  and  _277
REMARK  116  A    between atoms: _282  and  _284
REMARK  117  A    between atoms: _284  and  _285
REMARK  118  A    between atoms: _284  and  _287
REMARK  119  A    between atoms: _287  and  _288
REMARK  120  A    between atoms: _288  and  _289
REMARK  121  A    between atoms: _289  and  _290
REMARK  122  A    between atoms: _299  and  _301
REMARK  123  A    between atoms: _301  and  _302
REMARK  124  A    between atoms: _301  and  _304
REMARK  125  A    between atoms: _304  and  _305
REMARK  126  A    between atoms: _311  and  _313
REMARK  127  A    between atoms: _313  and  _314
REMARK  128  A    between atoms: _313  and  _316
REMARK  129  A    between atoms: _316  and  _317
REMARK  130  A    between atoms: _320  and  _322
REMARK  131  A    between atoms: _322  and  _323
REMARK  132  A    between atoms: _322  and  _325
REMARK  133  A    between atoms: _325  and  _326
REMARK  134  A    between atoms: _329  and  _331
REMARK  135  A    between atoms: _331  and  _332
REMARK  136  A    between atoms: _331  and  _334
REMARK  137  A    between atoms: _334  and  _335
REMARK  138  A    between atoms: _338  and  _340
REMARK  139  A    between atoms: _340  and  _341
REMARK  140  A    between atoms: _340  and  _343
REMARK  141  A    between atoms: _343  and  _344
REMARK  142  A    between atoms: _347  and  _349
REMARK  143  A    between atoms: _349  and  _350
REMARK  144  A    between atoms: _352  and  _354
REMARK  145  A    between atoms: _354  and  _355
REMARK  146  A    between atoms: _358  and  _360
REMARK  147  A    between atoms: _360  and  _361
REMARK  148  A    between atoms: _360  and  _363
REMARK  149  A    between atoms: _363  and  _364
REMARK  150  A    between atoms: _367  and  _369
REMARK  151  A    between atoms: _369  and  _370
REMARK  152  A    between atoms: _369  and  _372
REMARK  153  A    between atoms: _372  and  _373
REMARK  154  A    between atoms: _376  and  _378
REMARK  155  A    between atoms: _378  and  _379
REMARK  156  A    between atoms: _378  and  _381
REMARK  157  A    between atoms: _381  and  _382
REMARK  158  A    between atoms: _385  and  _387
REMARK  159  A    between atoms: _387  and  _388
REMARK  160  A    between atoms: _387  and  _390
REMARK  161  A    between atoms: _390  and  _391
REMARK  162  A    between atoms: _394  and  _396
REMARK  163  A    between atoms: _396  and  _397
REMARK  164  A    between atoms: _396  and  _399
REMARK  165  A    between atoms: _399  and  _400
REMARK  166  A    between atoms: _400  and  _401
REMARK  167  A    between atoms: _401  and  _402
REMARK  168  A    between atoms: _402  and  _403
REMARK  169  A    between atoms: _407  and  _409
REMARK  170  A    between atoms: _409  and  _410
REMARK  171  A    between atoms: _409  and  _412
REMARK  172  A    between atoms: _415  and  _417
REMARK  173  A    between atoms: _417  and  _418
REMARK  174  A    between atoms: _417  and  _420
REMARK  175  A    between atoms: _423  and  _425
REMARK  176  A    between atoms: _425  and  _426
REMARK  177  A    between atoms: _428  and  _430
REMARK  178  A    between atoms: _430  and  _431
REMARK  179  A    between atoms: _433  and  _435
REMARK  180  A    between atoms: _435  and  _436
REMARK  181  A    between atoms: _435  and  _438
REMARK  182  A    between atoms: _438  and  _439
REMARK  183  A    between atoms: _442  and  _444
REMARK  184  A    between atoms: _444  and  _445
REMARK  185  A    between atoms: _447  and  _449
REMARK  186  A    between atoms: _449  and  _450
REMARK  187  A    between atoms: _452  and  _454
REMARK  188  A    between atoms: _454  and  _455
REMARK  189  A    between atoms: _454  and  _457
REMARK  190  A    between atoms: _457  and  _458
REMARK  191  A    between atoms: _458  and  _459
REMARK  192  A    between atoms: _461  and  _463
REMARK  193  A    between atoms: _463  and  _464
REMARK  194  A    between atoms: _463  and  _466
REMARK  195  A    between atoms: _466  and  _467
REMARK  196  A    between atoms: _470  and  _472
REMARK  197  A    between atoms: _472  and  _473
REMARK  198  A    between atoms: _472  and  _475
REMARK  199  A    between atoms: _475  and  _476
REMARK  200  A    between atoms: _480  and  _481
REMARK  201  A    between atoms: _486  and  _488
REMARK  202  A    between atoms: _488  and  _489
REMARK  203  A    between atoms: _492  and  _494
REMARK  204  A    between atoms: _494  and  _495
REMARK  205  A    between atoms: _494  and  _497
REMARK  206  A    between atoms: _497  and  _498
REMARK  207  A    between atoms: _503  and  _505
REMARK  208  A    between atoms: _505  and  _506
REMARK  209  A    between atoms: _505  and  _508
REMARK  210  A    between atoms: _508  and  _509
REMARK  211  A    between atoms: _512  and  _514
REMARK  212  A    between atoms: _514  and  _515
REMARK  213  A    between atoms: _514  and  _517
REMARK  214  A    between atoms: _517  and  _518
REMARK  215  A    between atoms: _521  and  _523
REMARK  216  A    between atoms: _523  and  _524
REMARK  217  A    between atoms: _526  and  _528
REMARK  218  A    between atoms: _528  and  _529
REMARK  219  A    between atoms: _528  and  _531
REMARK  220  A    between atoms: _531  and  _532
REMARK  221  A    between atoms: _532  and  _533
REMARK  222  A    between atoms: _533  and  _534
REMARK  223  A    between atoms: _543  and  _545
REMARK  224  A    between atoms: _545  and  _546
REMARK  225  A    between atoms: _545  and  _548
REMARK  226  A    between atoms: _548  and  _549
REMARK                            x       y       z     vdW  Elec       q    Type
REMARK                         _______ _______ _______ _____ _____    ______ ____
ROOT
ATOM      1  CA  MET A   1      -8.653  -1.973  -7.213  0.00  0.00    +0.134 C 
ENDROOT
BRANCH   1   2
ATOM      2  N   MET A   1      -8.778  -0.603  -6.740  0.00  0.00    -0.239 NA
ATOM      3  H   MET A   1      -9.544  -0.015  -7.127  0.00  0.00    +0.142 HD
ENDBRANCH   1   2
BRANCH   1   4
ATOM      4  C   MET A   1      -8.761  -2.003  -8.735  0.00  0.00    +0.224 C 
ATOM      5  O   MET A   1      -9.649  -1.369  -9.313  0.00  0.00    -0.287 OA
ENDBRANCH   1   4
BRANCH   1   6
ATOM      6  CB  MET A   1      -9.779  -2.794  -6.586  0.00  0.00    +0.037 C 
BRANCH   6   7
ATOM      7  CG  MET A   1      -9.785  -4.245  -6.939  0.00  0.00    +0.059 C 
BRANCH   7   8
ATOM      8  SD  MET A   1     -11.213  -5.022  -6.202  0.00  0.00    -0.139 S 
ATOM      9  CE  MET A   1     -12.551  -4.124  -6.935  0.00  0.00    +0.069 C 
ENDBRANCH   7   8
ENDBRANCH   6   7
ENDBRANCH   1   6
TORSDOF 5
REMARK  Name = ../refined-set-2016/2rkf/2rkf_pocket.pdb
REMARK  226 active torsions:
REMARK  status: ('A' for Active; 'I' for Inactive)
REMARK    1  A    between atoms: _1  and  _3
REMARK    2  A    between atoms: _3  and  _4
REMARK    3  A    between atoms: _3  and  _6
REMARK    4  A    between atoms: _6  and  _7
REMARK    5  A    between atoms: _7  and  _8
REMARK    6  A    between atoms: _8  and  _9
REMARK    7  A    between atoms: _18  and  _20
REMARK    8  A    between atoms: _20  and  _21
REMARK    9  A    between atoms: _20  and  _23
REMARK   10  A    between atoms: _23  and  _24
REMARK   11  A    between atoms: _30  and  _32
REMARK   12  A    between atoms: _32  and  _33
REMARK   13  A    between atoms: _32  and  _35
REMARK   14  A    between atoms: _35  and  _36
REMARK   15  A    between atoms: _39  and  _41
REMARK   16  A    between atoms: _41  and  _42
REMARK   17  A    between atoms: _41  and  _44
REMARK   18  A    between atoms: _44  and  _45
REMARK   19  A    between atoms: _48  and  _50
REMARK   20  A    between atoms: _50  and  _51
REMARK   21  A    between atoms: _50  and  _53
REMARK   22  A    between atoms: _53  and  _54
REMARK   23  A    between atoms: _57  and  _59
REMARK   24  A    between atoms: _59  and  _60
REMARK   25  A    between atoms: _59  and  _62
REMARK   26  A    between atoms: _62  and  _63
REMARK   27  A    between atoms: _66  and  _68
REMARK   28  A    between atoms: _68  and  _69
REMARK   29  A    between atoms: _71  and  _73
REMARK   30  A    between atoms: _73  and  _74
REMARK   31  A    between atoms: _77  and  _79
REMARK   32  A    between atoms: _79  and  _80
REMARK   33  A    between atoms: _79  and  _82
REMARK   34  A    between atoms: _82  and  _83
REMARK   35  A    between atoms: _86  and  _88
REMARK   36  A    between atoms: _88  and  _89
REMARK   37  A    between atoms: _88  and  _91
REMARK   38  A    between atoms: _91  and  _92
REMARK   39  A    between atoms: _95  and  _97
REMARK   40  A    between atoms: _97  and  _98
REMARK   41  A    between atoms: _97  and  _100
REMARK   42  A    between atoms: _100  and  _101
REMARK   43  A    between atoms: _104  and  _106
REMARK   44  A    between atoms: _106  and  _107
REMARK   45  A    between atoms: _106  and  _109
REMARK   46  A    between atoms: _109  and  _110
REMARK   47  A    between atoms: _113  and  _115
REMARK   48  A    between atoms: _115  and  _116
REMARK   49  A    between atoms: _115  and  _118
REMARK   50  A    between atoms: _118  and  _119
REMARK   51  A    between atoms: _122  and  _124
REMARK   52  A    between atoms: _124  and  _125
REMARK   53  A    between atoms: _124  and  _127
REMARK   54  A    between atoms: _127  and  _128
REMARK   55  A    between atoms: _128  and  _129
REMARK   56  A    between atoms: _129  and  _130
REMARK   57  A    between atoms: _130  and  _131
REMARK   58  A    between atoms: _135  and  _137
REMARK   59  A    between atoms: _137  and  _138
REMARK   60  A    between atoms: _137  and  _140
REMARK   61  A    between atoms: _143  and  _145
REMARK   62  A    between atoms: _145  and  _146
REMARK   63  A    between atoms: _145  and  _148
REMARK   64  A    between atoms: _151  and  _153
REMARK   65  A    between atoms: _153  and  _154
REMARK   66  A    between atoms: _156  and  _158
REMARK   67  A    between atoms: _158  and  _159
REMARK   68  A    between atoms: _161  and  _163
REMARK   69  A    between atoms: _163  and  _164
REMARK   70  A    between atoms: _163  and  _166
REMARK   71  A    between atoms: _166  and  _167
REMARK   72  A    between atoms: _170  and  _172
REMARK   73  A    between atoms: _172  and  _173
REMARK   74  A    between atoms: _175  and  _177
REMARK   75  A    between atoms: _177  and  _178
REMARK   76  A    between atoms: _180  and  _182
REMARK   77  A    between atoms: _182  and  _183
REMARK   78  A    between atoms: _182  and  _185
REMARK   79  A    between atoms: _185  and  _186
REMARK   80  A    between atoms: _186  and  _187
REMARK   81  A    between atoms: _189  and  _191
REMARK   82  A    between atoms: _191  and  _192
REMARK   83  A    between atoms: _191  and  _194
REMARK   84  A    between atoms: _194  and  _195
REMARK   85  A    between atoms: _198  and  _200
REMARK   86  A    between atoms: _200  and  _201
REMARK   87  A    between atoms: _200  and  _203
REMARK   88  A    between atoms: _203  and  _204
REMARK   89  A    between atoms: _208  and  _209
REMARK   90  A    between atoms: _214  and  _216
REMARK   91  A    between atoms: _216  and  _217
REMARK   92  A    between atoms: _220  and  _222
REMARK   93  A    between atoms: _222  and  _223
REMARK   94  A    between atoms: _222  and  _225
REMARK   95  A    between atoms: _225  and  _226
REMARK   96  A    between atoms: _231  and  _233
REMARK   97  A    between atoms: _233  and  _234
REMARK   98  A    between atoms: _233  and  _236
REMARK   99  A    between atoms: _236  and  _237
REMARK  100  A    between atoms: _240  and  _242
REMARK  101  A    between atoms: _242  and  _243
REMARK  102  A    between atoms: _242  and  _245
REMARK  103  A    between atoms: _245  and  _246
REMARK  104  A    between atoms: _249  and  _251
REMARK  105  A    between atoms: _251  and  _252
REMARK  106  A    between atoms: _254  and  _256
REMARK  107  A    between atoms: _256  and  _257
REMARK  108  A    between atoms: _256  and  _259
REMARK  109  A    between atoms: _259  and  _260
REMARK  110  A    between atoms: _260  and  _261
REMARK  111  A    between atoms: _261  and  _262
REMARK  112  A    between atoms: _271  and  _273
REMARK  113  A    between atoms: _273  and  _274
REMARK  114  A    between atoms: _273  and  _276
REMARK  115  A    between atoms: _276  and  _277
REMARK  116  A    between atoms: _282  and  _284
REMARK  117  A    between atoms: _284  and  _285
REMARK  118  A    between atoms: _284  and  _287
REMARK  119  A    between atoms: _287  and  _288
REMARK  120  A    between atoms: _288  and  _289
REMARK  121  A    between atoms: _289  and  _290
REMARK  122  A    between atoms: _299  and  _301
REMARK  123  A    between atoms: _301  and  _302
REMARK  124  A    between atoms: _301  and  _304
REMARK  125  A    between atoms: _304  and  _305
REMARK  126  A    between atoms: _311  and  _313
REMARK  127  A    between atoms: _313  and  _314
REMARK  128  A    between atoms: _313  and  _316
REMARK  129  A    between atoms: _316  and  _317
REMARK  130  A    between atoms: _320  and  _322
REMARK  131  A    between atoms: _322  and  _323
REMARK  132  A    between atoms: _322  and  _325
REMARK  133  A    between atoms: _325  and  _326
REMARK  134  A    between atoms: _329  and  _331
REMARK  135  A    between atoms: _331  and  _332
REMARK  136  A    between atoms: _331  and  _334
REMARK  137  A    between atoms: _334  and  _335
REMARK  138  A    between atoms: _338  and  _340
REMARK  139  A    between atoms: _340  and  _341
REMARK  140  A    between atoms: _340  and  _343
REMARK  141  A    between atoms: _343  and  _344
REMARK  142  A    between atoms: _347  and  _349
REMARK  143  A    between atoms: _349  and  _350
REMARK  144  A    between atoms: _352  and  _354
REMARK  145  A    between atoms: _354  and  _355
REMARK  146  A    between atoms: _358  and  _360
REMARK  147  A    between atoms: _360  and  _361
REMARK  148  A    between atoms: _360  and  _363
REMARK  149  A    between atoms: _363  and  _364
REMARK  150  A    between atoms: _367  and  _369
REMARK  151  A    between atoms: _369  and  _370
REMARK  152  A    between atoms: _369  and  _372
REMARK  153  A    between atoms: _372  and  _373
REMARK  154  A    between atoms: _376  and  _378
REMARK  155  A    between atoms: _378  and  _379
REMARK  156  A    between atoms: _378  and  _381
REMARK  157  A    between atoms: _381  and  _382
REMARK  158  A    between atoms: _385  and  _387
REMARK  159  A    between atoms: _387  and  _388
REMARK  160  A    between atoms: _387  and  _390
REMARK  161  A    between atoms: _390  and  _391
REMARK  162  A    between atoms: _394  and  _396
REMARK  163  A    between atoms: _396  and  _397
REMARK  164  A    between atoms: _396  and  _399
REMARK  165  A    between atoms: _399  and  _400
REMARK  166  A    between atoms: _400  and  _401
REMARK  167  A    between atoms: _401  and  _402
REMARK  168  A    between atoms: _402  and  _403
REMARK  169  A    between atoms: _407  and  _409
REMARK  170  A    between atoms: _409  and  _410
REMARK  171  A    between atoms: _409  and  _412
REMARK  172  A    between atoms: _415  and  _417
REMARK  173  A    between atoms: _417  and  _418
REMARK  174  A    between atoms: _417  and  _420
REMARK  175  A    between atoms: _423  and  _425
REMARK  176  A    between atoms: _425  and  _426
REMARK  177  A    between atoms: _428  and  _430
REMARK  178  A    between atoms: _430  and  _431
REMARK  179  A    between atoms: _433  and  _435
REMARK  180  A    between atoms: _435  and  _436
REMARK  181  A    between atoms: _435  and  _438
REMARK  182  A    between atoms: _438  and  _439
REMARK  183  A    between atoms: _442  and  _444
REMARK  184  A    between atoms: _444  and  _445
REMARK  185  A    between atoms: _447  and  _449
REMARK  186  A    between atoms: _449  and  _450
REMARK  187  A    between atoms: _452  and  _454
REMARK  188  A    between atoms: _454  and  _455
REMARK  189  A    between atoms: _454  and  _457
REMARK  190  A    between atoms: _457  and  _458
REMARK  191  A    between atoms: _458  and  _459
REMARK  192  A    between atoms: _461  and  _463
REMARK  193  A    between atoms: _463  and  _464
REMARK  194  A    between atoms: _463  and  _466
REMARK  195  A    between atoms: _466  and  _467
REMARK  196  A    between atoms: _470  and  _472
REMARK  197  A    between atoms: _472  and  _473
REMARK  198  A    between atoms: _472  and  _475
REMARK  199  A    between atoms: _475  and  _476
REMARK  200  A    between atoms: _480  and  _481
REMARK  201  A    between atoms: _486  and  _488
REMARK  202  A    between atoms: _488  and  _489
REMARK  203  A    between atoms: _492  and  _494
REMARK  204  A    between atoms: _494  and  _495
REMARK  205  A    between atoms: _494  and  _497
REMARK  206  A    between atoms: _497  and  _498
REMARK  207  A    between atoms: _503  and  _505
REMARK  208  A    between atoms: _505  and  _506
REMARK  209  A    between atoms: _505  and  _508
REMARK  210  A    between atoms: _508  and  _509
REMARK  211  A    between atoms: _512  and  _514
REMARK  212  A    between atoms: _514  and  _515
REMARK  213  A    between atoms: _514  and  _517
REMARK  214  A    between atoms: _517  and  _518
REMARK  215  A    between atoms: _521  and  _523
REMARK  216  A    between atoms: _523  and  _524
REMARK  217  A    between atoms: _526  and  _528
REMARK  218  A    between atoms: _528  and  _529
REMARK  219  A    between atoms: _528  and  _531
REMARK  220  A    between atoms: _531  and  _532
REMARK  221  A    between atoms: _532  and  _533
REMARK  222  A    between atoms: _533  and  _534
REMARK  223  A    between atoms: _543  and  _545
REMARK  224  A    between atoms: _545  and  _546
REMARK  225  A    between atoms: _545  and  _548
REMARK  226  A    between atoms: _548  and  _549
REMARK                            x       y       z     vdW  Elec       q    Type
REMARK                         _______ _______ _______ _____ _____    ______ ____
ROOT
ATOM      1  CA  LEU A   1     -16.761  -5.248 -13.411  0.00  0.00    +0.133 C 
ENDROOT
BRANCH   1   2
ATOM      2  N   LEU A   1     -18.207  -5.277 -13.644  0.00  0.00    -0.239 NA
ATOM      3  H   LEU A   1     -18.848  -5.032 -12.862  0.00  0.00    +0.142 HD
ENDBRANCH   1   2
BRANCH   1   4
ATOM      4  C   LEU A   1     -16.382  -6.571 -12.779  0.00  0.00    +0.224 C 
ATOM      5  O   LEU A   1     -17.134  -7.095 -11.944  0.00  0.00    -0.287 OA
ENDBRANCH   1   4
BRANCH   1   6
ATOM      6  CB  LEU A   1     -16.411  -4.095 -12.461  0.00  0.00    +0.025 C 
BRANCH   6   7
ATOM      7  CG  LEU A   1     -16.966  -2.740 -12.909  0.00  0.00    +0.002 C 
ATOM      8  CD2 LEU A   1     -16.644  -1.714 -11.864  0.00  0.00    +0.000 C 
ATOM      9  CD1 LEU A   1     -16.411  -2.325 -14.257  0.00  0.00    +0.000 C 
ENDBRANCH   6   7
ENDBRANCH   1   6
TORSDOF 4
REMARK  Name = ../refined-set-2016/2rkf/2rkf_pocket.pdb
REMARK  226 active torsions:
REMARK  status: ('A' for Active; 'I' for Inactive)
REMARK    1  A    between atoms: _1  and  _3
REMARK    2  A    between atoms: _3  and  _4
REMARK    3  A    between atoms: _3  and  _6
REMARK    4  A    between atoms: _6  and  _7
REMARK    5  A    between atoms: _7  and  _8
REMARK    6  A    between atoms: _8  and  _9
REMARK    7  A    between atoms: _18  and  _20
REMARK    8  A    between atoms: _20  and  _21
REMARK    9  A    between atoms: _20  and  _23
REMARK   10  A    between atoms: _23  and  _24
REMARK   11  A    between atoms: _30  and  _32
REMARK   12  A    between atoms: _32  and  _33
REMARK   13  A    between atoms: _32  and  _35
REMARK   14  A    between atoms: _35  and  _36
REMARK   15  A    between atoms: _39  and  _41
REMARK   16  A    between atoms: _41  and  _42
REMARK   17  A    between atoms: _41  and  _44
REMARK   18  A    between atoms: _44  and  _45
REMARK   19  A    between atoms: _48  and  _50
REMARK   20  A    between atoms: _50  and  _51
REMARK   21  A    between atoms: _50  and  _53
REMARK   22  A    between atoms: _53  and  _54
REMARK   23  A    between atoms: _57  and  _59
REMARK   24  A    between atoms: _59  and  _60
REMARK   25  A    between atoms: _59  and  _62
REMARK   26  A    between atoms: _62  and  _63
REMARK   27  A    between atoms: _66  and  _68
REMARK   28  A    between atoms: _68  and  _69
REMARK   29  A    between atoms: _71  and  _73
REMARK   30  A    between atoms: _73  and  _74
REMARK   31  A    between atoms: _77  and  _79
REMARK   32  A    between atoms: _79  and  _80
REMARK   33  A    between atoms: _79  and  _82
REMARK   34  A    between atoms: _82  and  _83
REMARK   35  A    between atoms: _86  and  _88
REMARK   36  A    between atoms: _88  and  _89
REMARK   37  A    between atoms: _88  and  _91
REMARK   38  A    between atoms: _91  and  _92
REMARK   39  A    between atoms: _95  and  _97
REMARK   40  A    between atoms: _97  and  _98
REMARK   41  A    between atoms: _97  and  _100
REMARK   42  A    between atoms: _100  and  _101
REMARK   43  A    between atoms: _104  and  _106
REMARK   44  A    between atoms: _106  and  _107
REMARK   45  A    between atoms: _106  and  _109
REMARK   46  A    between atoms: _109  and  _110
REMARK   47  A    between atoms: _113  and  _115
REMARK   48  A    between atoms: _115  and  _116
REMARK   49  A    between atoms: _115  and  _118
REMARK   50  A    between atoms: _118  and  _119
REMARK   51  A    between atoms: _122  and  _124
REMARK   52  A    between atoms: _124  and  _125
REMARK   53  A    between atoms: _124  and  _127
REMARK   54  A    between atoms: _127  and  _128
REMARK   55  A    between atoms: _128  and  _129
REMARK   56  A    between atoms: _129  and  _130
REMARK   57  A    between atoms: _130  and  _131
REMARK   58  A    between atoms: _135  and  _137
REMARK   59  A    between atoms: _137  and  _138
REMARK   60  A    between atoms: _137  and  _140
REMARK   61  A    between atoms: _143  and  _145
REMARK   62  A    between atoms: _145  and  _146
REMARK   63  A    between atoms: _145  and  _148
REMARK   64  A    between atoms: _151  and  _153
REMARK   65  A    between atoms: _153  and  _154
REMARK   66  A    between atoms: _156  and  _158
REMARK   67  A    between atoms: _158  and  _159
REMARK   68  A    between atoms: _161  and  _163
REMARK   69  A    between atoms: _163  and  _164
REMARK   70  A    between atoms: _163  and  _166
REMARK   71  A    between atoms: _166  and  _167
REMARK   72  A    between atoms: _170  and  _172
REMARK   73  A    between atoms: _172  and  _173
REMARK   74  A    between atoms: _175  and  _177
REMARK   75  A    between atoms: _177  and  _178
REMARK   76  A    between atoms: _180  and  _182
REMARK   77  A    between atoms: _182  and  _183
REMARK   78  A    between atoms: _182  and  _185
REMARK   79  A    between atoms: _185  and  _186
REMARK   80  A    between atoms: _186  and  _187
REMARK   81  A    between atoms: _189  and  _191
REMARK   82  A    between atoms: _191  and  _192
REMARK   83  A    between atoms: _191  and  _194
REMARK   84  A    between atoms: _194  and  _195
REMARK   85  A    between atoms: _198  and  _200
REMARK   86  A    between atoms: _200  and  _201
REMARK   87  A    between atoms: _200  and  _203
REMARK   88  A    between atoms: _203  and  _204
REMARK   89  A    between atoms: _208  and  _209
REMARK   90  A    between atoms: _214  and  _216
REMARK   91  A    between atoms: _216  and  _217
REMARK   92  A    between atoms: _220  and  _222
REMARK   93  A    between atoms: _222  and  _223
REMARK   94  A    between atoms: _222  and  _225
REMARK   95  A    between atoms: _225  and  _226
REMARK   96  A    between atoms: _231  and  _233
REMARK   97  A    between atoms: _233  and  _234
REMARK   98  A    between atoms: _233  and  _236
REMARK   99  A    between atoms: _236  and  _237
REMARK  100  A    between atoms: _240  and  _242
REMARK  101  A    between atoms: _242  and  _243
REMARK  102  A    between atoms: _242  and  _245
REMARK  103  A    between atoms: _245  and  _246
REMARK  104  A    between atoms: _249  and  _251
REMARK  105  A    between atoms: _251  and  _252
REMARK  106  A    between atoms: _254  and  _256
REMARK  107  A    between atoms: _256  and  _257
REMARK  108  A    between atoms: _256  and  _259
REMARK  109  A    between atoms: _259  and  _260
REMARK  110  A    between atoms: _260  and  _261
REMARK  111  A    between atoms: _261  and  _262
REMARK  112  A    between atoms: _271  and  _273
REMARK  113  A    between atoms: _273  and  _274
REMARK  114  A    between atoms: _273  and  _276
REMARK  115  A    between atoms: _276  and  _277
REMARK  116  A    between atoms: _282  and  _284
REMARK  117  A    between atoms: _284  and  _285
REMARK  118  A    between atoms: _284  and  _287
REMARK  119  A    between atoms: _287  and  _288
REMARK  120  A    between atoms: _288  and  _289
REMARK  121  A    between atoms: _289  and  _290
REMARK  122  A    between atoms: _299  and  _301
REMARK  123  A    between atoms: _301  and  _302
REMARK  124  A    between atoms: _301  and  _304
REMARK  125  A    between atoms: _304  and  _305
REMARK  126  A    between atoms: _311  and  _313
REMARK  127  A    between atoms: _313  and  _314
REMARK  128  A    between atoms: _313  and  _316
REMARK  129  A    between atoms: _316  and  _317
REMARK  130  A    between atoms: _320  and  _322
REMARK  131  A    between atoms: _322  and  _323
REMARK  132  A    between atoms: _322  and  _325
REMARK  133  A    between atoms: _325  and  _326
REMARK  134  A    between atoms: _329  and  _331
REMARK  135  A    between atoms: _331  and  _332
REMARK  136  A    between atoms: _331  and  _334
REMARK  137  A    between atoms: _334  and  _335
REMARK  138  A    between atoms: _338  and  _340
REMARK  139  A    between atoms: _340  and  _341
REMARK  140  A    between atoms: _340  and  _343
REMARK  141  A    between atoms: _343  and  _344
REMARK  142  A    between atoms: _347  and  _349
REMARK  143  A    between atoms: _349  and  _350
REMARK  144  A    between atoms: _352  and  _354
REMARK  145  A    between atoms: _354  and  _355
REMARK  146  A    between atoms: _358  and  _360
REMARK  147  A    between atoms: _360  and  _361
REMARK  148  A    between atoms: _360  and  _363
REMARK  149  A    between atoms: _363  and  _364
REMARK  150  A    between atoms: _367  and  _369
REMARK  151  A    between atoms: _369  and  _370
REMARK  152  A    between atoms: _369  and  _372
REMARK  153  A    between atoms: _372  and  _373
REMARK  154  A    between atoms: _376  and  _378
REMARK  155  A    between atoms: _378  and  _379
REMARK  156  A    between atoms: _378  and  _381
REMARK  157  A    between atoms: _381  and  _382
REMARK  158  A    between atoms: _385  and  _387
REMARK  159  A    between atoms: _387  and  _388
REMARK  160  A    between atoms: _387  and  _390
REMARK  161  A    between atoms: _390  and  _391
REMARK  162  A    between atoms: _394  and  _396
REMARK  163  A    between atoms: _396  and  _397
REMARK  164  A    between atoms: _396  and  _399
REMARK  165  A    between atoms: _399  and  _400
REMARK  166  A    between atoms: _400  and  _401
REMARK  167  A    between atoms: _401  and  _402
REMARK  168  A    between atoms: _402  and  _403
REMARK  169  A    between atoms: _407  and  _409
REMARK  170  A    between atoms: _409  and  _410
REMARK  171  A    between atoms: _409  and  _412
REMARK  172  A    between atoms: _415  and  _417
REMARK  173  A    between atoms: _417  and  _418
REMARK  174  A    between atoms: _417  and  _420
REMARK  175  A    between atoms: _423  and  _425
REMARK  176  A    between atoms: _425  and  _426
REMARK  177  A    between atoms: _428  and  _430
REMARK  178  A    between atoms: _430  and  _431
REMARK  179  A    between atoms: _433  and  _435
REMARK  180  A    between atoms: _435  and  _436
REMARK  181  A    between atoms: _435  and  _438
REMARK  182  A    between atoms: _438  and  _439
REMARK  183  A    between atoms: _442  and  _444
REMARK  184  A    between atoms: _444  and  _445
REMARK  185  A    between atoms: _447  and  _449
REMARK  186  A    between atoms: _449  and  _450
REMARK  187  A    between atoms: _452  and  _454
REMARK  188  A    between atoms: _454  and  _455
REMARK  189  A    between atoms: _454  and  _457
REMARK  190  A    between atoms: _457  and  _458
REMARK  191  A    between atoms: _458  and  _459
REMARK  192  A    between atoms: _461  and  _463
REMARK  193  A    between atoms: _463  and  _464
REMARK  194  A    between atoms: _463  and  _466
REMARK  195  A    between atoms: _466  and  _467
REMARK  196  A    between atoms: _470  and  _472
REMARK  197  A    between atoms: _472  and  _473
REMARK  198  A    between atoms: _472  and  _475
REMARK  199  A    between atoms: _475  and  _476
REMARK  200  A    between atoms: _480  and  _481
REMARK  201  A    between atoms: _486  and  _488
REMARK  202  A    between atoms: _488  and  _489
REMARK  203  A    between atoms: _492  and  _494
REMARK  204  A    between atoms: _494  and  _495
REMARK  205  A    between atoms: _494  and  _497
REMARK  206  A    between atoms: _497  and  _498
REMARK  207  A    between atoms: _503  and  _505
REMARK  208  A    between atoms: _505  and  _506
REMARK  209  A    between atoms: _505  and  _508
REMARK  210  A    between atoms: _508  and  _509
REMARK  211  A    between atoms: _512  and  _514
REMARK  212  A    between atoms: _514  and  _515
REMARK  213  A    between atoms: _514  and  _517
REMARK  214  A    between atoms: _517  and  _518
REMARK  215  A    between atoms: _521  and  _523
REMARK  216  A    between atoms: _523  and  _524
REMARK  217  A    between atoms: _526  and  _528
REMARK  218  A    between atoms: _528  and  _529
REMARK  219  A    between atoms: _528  and  _531
REMARK  220  A    between atoms: _531  and  _532
REMARK  221  A    between atoms: _532  and  _533
REMARK  222  A    between atoms: _533  and  _534
REMARK  223  A    between atoms: _543  and  _545
REMARK  224  A    between atoms: _545  and  _546
REMARK  225  A    between atoms: _545  and  _548
REMARK  226  A    between atoms: _548  and  _549
REMARK                            x       y       z     vdW  Elec       q    Type
REMARK                         _______ _______ _______ _____ _____    ______ ____
ROOT
ATOM      1  C   ILE A   5     -22.667  -6.020  -6.471  0.00  0.00    +0.241 C 
ATOM      2  N   ILE A   6     -23.974  -5.874  -6.238  0.00  0.00    -0.297 N 
ATOM      3  H   ILE A   6     -24.355  -6.084  -5.293  0.00  0.00    +0.150 HD
ATOM      4  O   ILE A   5     -22.161  -5.873  -7.602  0.00  0.00    -0.273 OA
ENDROOT
BRANCH   2   5
ATOM      5  CA  ILE A   6     -24.882  -5.418  -7.306  0.00  0.00    +0.149 C 
BRANCH   5   6
ATOM      6  C   ILE A   6     -25.083  -3.940  -7.049  0.00  0.00    +0.241 C 
ATOM      7  O   ILE A   6     -25.650  -3.556  -6.021  0.00  0.00    -0.273 OA
ATOM      8  N   GLY A   7     -24.581  -3.113  -7.966  0.00  0.00    -0.295 N 
ATOM      9  H   GLY A   7     -24.147  -3.504  -8.827  0.00  0.00    +0.150 HD
BRANCH   8  10
ATOM     10  CA  GLY A   7     -24.633  -1.645  -7.776  0.00  0.00    +0.176 C 
BRANCH  10  11
ATOM     11  C   GLY A   7     -25.843  -1.021  -8.464  0.00  0.00    +0.243 C 
ATOM     12  N   ARG A   8     -25.922   0.306  -8.394  0.00  0.00    -0.297 N 
ATOM     13  H   ARG A   8     -25.117   0.844  -8.014  0.00  0.00    +0.150 HD
ATOM     14  O   GLY A   7     -26.684  -1.738  -9.057  0.00  0.00    -0.273 OA
BRANCH  12  15
ATOM     15  CA  ARG A   8     -27.121   1.027  -8.841  0.00  0.00    +0.149 C 
BRANCH  15  16
ATOM     16  C   ARG A   8     -27.362   0.834 -10.330  0.00  0.00    +0.241 C 
ATOM     17  O   ARG A   8     -28.513   0.872 -10.780  0.00  0.00    -0.273 OA
ATOM     18  N   ASN A   9     -26.295   0.629 -11.090  0.00  0.00    -0.298 N 
ATOM     19  H   ASN A   9     -25.343   0.623 -10.670  0.00  0.00    +0.150 HD
BRANCH  18  20
ATOM     20  CA  ASN A   9     -26.473   0.410 -12.535  0.00  0.00    +0.146 C 
BRANCH  20  21
ATOM     21  C   ASN A   9     -27.437  -0.746 -12.860  0.00  0.00    +0.227 C 
ATOM     22  O   ASN A   9     -28.136  -0.719 -13.884  0.00  0.00    -0.286 OA
ENDBRANCH  20  21
BRANCH  20  23
ATOM     23  CB  ASN A   9     -25.133   0.214 -13.240  0.00  0.00    +0.112 C 
BRANCH  23  24
ATOM     24  CG  ASN A   9     -24.531  -1.139 -13.001  0.00  0.00    +0.222 C 
ATOM     25  OD1 ASN A   9     -24.269  -1.528 -11.859  0.00  0.00    -0.275 OA
ATOM     26  ND2 ASN A   9     -24.253  -1.854 -14.086  0.00  0.00    -0.329 N 
ATOM     27 HD21 ASN A   9     -23.796  -2.783 -13.993  0.00  0.00    +0.145 HD
ATOM     28 HD22 ASN A   9     -24.493  -1.484 -15.028  0.00  0.00    +0.145 HD
ENDBRANCH  23  24
ENDBRANCH  20  23
ENDBRANCH  18  20
ENDBRANCH  15  16
BRANCH  15  29
ATOM     29  CB  ARG A   8     -27.029   2.513  -8.507  0.00  0.00    +0.033 C 
BRANCH  29  30
ATOM     30  CG  ARG A   8     -27.061   2.771  -6.965  0.00  0.00    +0.045 C 
BRANCH  30  31
ATOM     31  CD  ARG A   8     -27.146   4.274  -6.652  0.00  0.00    +0.174 C 
BRANCH  31  32
ATOM     32  NE  ARG A   8     -25.957   4.997  -7.131  0.00  0.00    -0.265 N 
ATOM     33  HE  ARG A   8     -25.108   4.984  -6.531  0.00  0.00    +0.259 HD
ATOM     34  CZ  ARG A   8     -25.893   5.669  -8.283  0.00  0.00    +0.342 C 
ATOM     35  NH2 ARG A   8     -24.775   6.285  -8.657  0.00  0.00    -0.292 N 
ATOM     36 HH21 ARG A   8     -23.932   6.248  -8.049  0.00  0.00    +0.255 HD
ATOM     37 HH22 ARG A   8     -24.744   6.804  -9.558  0.00  0.00    +0.255 HD
ATOM     38  NH1 ARG A   8     -26.968   5.784  -9.051  0.00  0.00    -0.292 N 
ATOM     39 HH11 ARG A   8     -27.866   5.350  -8.757  0.00  0.00    +0.255 HD
ATOM     40 HH12 ARG A   8     -26.913   6.308  -9.947  0.00  0.00    +0.255 HD
ENDBRANCH  31  32
ENDBRANCH  30  31
ENDBRANCH  29  30
ENDBRANCH  15  29
ENDBRANCH  12  15
ENDBRANCH  10  11
ENDBRANCH   8  10
ENDBRANCH   5   6
BRANCH   5  41
ATOM     41  CB  ILE A   6     -26.247  -6.131  -7.281  0.00  0.00    +0.027 C 
ATOM     42  CG2 ILE A   6     -27.191  -5.550  -8.405  0.00  0.00    +0.002 C 
BRANCH  41  43
ATOM     43  CG1 ILE A   6     -26.076  -7.653  -7.445  0.00  0.00    +0.002 C 
ATOM     44  CD1 ILE A   6     -25.250  -8.110  -8.638  0.00  0.00    +0.000 C 
ENDBRANCH  41  43
ENDBRANCH   5  41
ENDBRANCH   2   5
BRANCH   1  45
ATOM     45  CA  ILE A   5     -21.803  -6.371  -5.266  0.00  0.00    +0.149 C 
BRANCH  45  48
ATOM     46  C   ASN A   4     -20.878  -8.573  -4.720  0.00  0.00    +0.241 C 
ATOM     47  O   ASN A   4     -21.583  -8.705  -3.696  0.00  0.00    -0.273 OA
ATOM     48  N   ILE A   5     -20.971  -7.544  -5.558  0.00  0.00    -0.297 N 
ATOM     49  H   ILE A   5     -20.436  -7.572  -6.450  0.00  0.00    +0.150 HD
BRANCH  46  50
ATOM     50  CA  ASN A   4     -19.844  -9.621  -5.089  0.00  0.00    +0.158 C 
BRANCH  50  52
ATOM     51  C   ALA A   3     -18.233  -8.993  -3.403  0.00  0.00    +0.241 C 
ATOM     52  N   ASN A   4     -19.124  -9.872  -3.859  0.00  0.00    -0.297 N 
ATOM     53  H   ASN A   4     -19.304 -10.747  -3.326  0.00  0.00    +0.150 HD
ATOM     54  O   ALA A   3     -17.877  -7.983  -4.043  0.00  0.00    -0.273 OA
BRANCH  51  55
ATOM     55  CA  ALA A   3     -17.675  -9.272  -2.017  0.00  0.00    +0.149 C 
ATOM     56  CB  ALA A   3     -18.371  -8.405  -0.997  0.00  0.00    +0.031 C 
BRANCH  55  59
ATOM     57  C   PRO A   2     -15.417  -9.632  -1.183  0.00  0.00    +0.241 C 
ATOM     58  O   PRO A   2     -15.758 -10.583  -0.461  0.00  0.00    -0.273 OA
ATOM     59  N   ALA A   3     -16.257  -8.988  -1.993  0.00  0.00    -0.297 N 
ATOM     60  H   ALA A   3     -15.880  -8.257  -2.629  0.00  0.00    +0.150 HD
BRANCH  57  63
ATOM     61  C   THR A   1     -13.550  -8.885  -3.603  0.00  0.00    +0.244 C 
ATOM     62  N   PRO A   2     -13.634  -8.350  -2.374  0.00  0.00    -0.272 N 
ATOM     63  CA  PRO A   2     -13.964  -9.173  -1.209  0.00  0.00    +0.152 C 
ATOM     64  CB  PRO A   2     -13.698  -8.248  -0.020  0.00  0.00    +0.031 C 
ATOM     65  CG  PRO A   2     -13.080  -7.022  -0.570  0.00  0.00    +0.024 C 
ATOM     66  CD  PRO A   2     -13.404  -6.941  -2.006  0.00  0.00    +0.094 C 
ATOM     67  O   THR A   1     -13.650 -10.095  -3.813  0.00  0.00    -0.273 OA
BRANCH  61  68
ATOM     68  CA  THR A   1     -13.311  -7.933  -4.763  0.00  0.00    +0.172 C 
BRANCH  68  69
ATOM     69  N   THR A   1     -12.440  -8.534  -5.760  0.00  0.00    -0.236 NA
ATOM     70  H   THR A   1     -12.853  -8.906  -6.639  0.00  0.00    +0.142 HD
ENDBRANCH  68  69
BRANCH  68  71
ATOM     71  CB  THR A   1     -14.675  -7.506  -5.375  0.00  0.00    +0.135 C 
ATOM     72  CG2 THR A   1     -15.413  -8.693  -5.975  0.00  0.00    +0.034 C 
BRANCH  71  73
ATOM     73  OG1 THR A   1     -15.477  -6.944  -4.345  0.00  0.00    -0.383 OA
ATOM     74  HG1 THR A   1     -16.350  -6.667  -4.722  0.00  0.00    +0.210 HD
ENDBRANCH  71  73
ENDBRANCH  68  71
ENDBRANCH  61  68
ENDBRANCH  57  63
ENDBRANCH  55  59
ENDBRANCH  51  55
ENDBRANCH  50  52
BRANCH  50  75
ATOM     75  CB  ASN A   4     -20.577 -10.864  -5.601  0.00  0.00    +0.114 C 
BRANCH  75  76
ATOM     76  CG  ASN A   4     -19.638 -11.984  -6.020  0.00  0.00    +0.222 C 
ATOM     77  ND2 ASN A   4     -20.066 -13.237  -5.808  0.00  0.00    -0.329 N 
ATOM     78 HD21 ASN A   4     -20.992 -13.402  -5.365  0.00  0.00    +0.145 HD
ATOM     79 HD22 ASN A   4     -19.472 -14.044  -6.086  0.00  0.00    +0.145 HD
ATOM     80  OD1 ASN A   4     -18.553 -11.733  -6.539  0.00  0.00    -0.275 OA
ENDBRANCH  75  76
ENDBRANCH  50  75
ENDBRANCH  46  50
ENDBRANCH  45  48
BRANCH  45  81
ATOM     81  CB  ILE A   5     -20.895  -5.154  -4.948  0.00  0.00    +0.027 C 
ATOM     82  CG2 ILE A   5     -21.680  -3.847  -4.947  0.00  0.00    +0.002 C 
BRANCH  81  83
ATOM     83  CG1 ILE A   5     -20.143  -5.390  -3.634  0.00  0.00    +0.002 C 
ATOM     84  CD1 ILE A   5     -18.958  -4.476  -3.499  0.00  0.00    +0.000 C 
ENDBRANCH  81  83
ENDBRANCH  45  81
ENDBRANCH   1  45
TORSDOF 31
REMARK  Name = ../refined-set-2016/2rkf/2rkf_pocket.pdb
REMARK  226 active torsions:
REMARK  status: ('A' for Active; 'I' for Inactive)
REMARK    1  A    between atoms: _1  and  _3
REMARK    2  A    between atoms: _3  and  _4
REMARK    3  A    between atoms: _3  and  _6
REMARK    4  A    between atoms: _6  and  _7
REMARK    5  A    between atoms: _7  and  _8
REMARK    6  A    between atoms: _8  and  _9
REMARK    7  A    between atoms: _18  and  _20
REMARK    8  A    between atoms: _20  and  _21
REMARK    9  A    between atoms: _20  and  _23
REMARK   10  A    between atoms: _23  and  _24
REMARK   11  A    between atoms: _30  and  _32
REMARK   12  A    between atoms: _32  and  _33
REMARK   13  A    between atoms: _32  and  _35
REMARK   14  A    between atoms: _35  and  _36
REMARK   15  A    between atoms: _39  and  _41
REMARK   16  A    between atoms: _41  and  _42
REMARK   17  A    between atoms: _41  and  _44
REMARK   18  A    between atoms: _44  and  _45
REMARK   19  A    between atoms: _48  and  _50
REMARK   20  A    between atoms: _50  and  _51
REMARK   21  A    between atoms: _50  and  _53
REMARK   22  A    between atoms: _53  and  _54
REMARK   23  A    between atoms: _57  and  _59
REMARK   24  A    between atoms: _59  and  _60
REMARK   25  A    between atoms: _59  and  _62
REMARK   26  A    between atoms: _62  and  _63
REMARK   27  A    between atoms: _66  and  _68
REMARK   28  A    between atoms: _68  and  _69
REMARK   29  A    between atoms: _71  and  _73
REMARK   30  A    between atoms: _73  and  _74
REMARK   31  A    between atoms: _77  and  _79
REMARK   32  A    between atoms: _79  and  _80
REMARK   33  A    between atoms: _79  and  _82
REMARK   34  A    between atoms: _82  and  _83
REMARK   35  A    between atoms: _86  and  _88
REMARK   36  A    between atoms: _88  and  _89
REMARK   37  A    between atoms: _88  and  _91
REMARK   38  A    between atoms: _91  and  _92
REMARK   39  A    between atoms: _95  and  _97
REMARK   40  A    between atoms: _97  and  _98
REMARK   41  A    between atoms: _97  and  _100
REMARK   42  A    between atoms: _100  and  _101
REMARK   43  A    between atoms: _104  and  _106
REMARK   44  A    between atoms: _106  and  _107
REMARK   45  A    between atoms: _106  and  _109
REMARK   46  A    between atoms: _109  and  _110
REMARK   47  A    between atoms: _113  and  _115
REMARK   48  A    between atoms: _115  and  _116
REMARK   49  A    between atoms: _115  and  _118
REMARK   50  A    between atoms: _118  and  _119
REMARK   51  A    between atoms: _122  and  _124
REMARK   52  A    between atoms: _124  and  _125
REMARK   53  A    between atoms: _124  and  _127
REMARK   54  A    between atoms: _127  and  _128
REMARK   55  A    between atoms: _128  and  _129
REMARK   56  A    between atoms: _129  and  _130
REMARK   57  A    between atoms: _130  and  _131
REMARK   58  A    between atoms: _135  and  _137
REMARK   59  A    between atoms: _137  and  _138
REMARK   60  A    between atoms: _137  and  _140
REMARK   61  A    between atoms: _143  and  _145
REMARK   62  A    between atoms: _145  and  _146
REMARK   63  A    between atoms: _145  and  _148
REMARK   64  A    between atoms: _151  and  _153
REMARK   65  A    between atoms: _153  and  _154
REMARK   66  A    between atoms: _156  and  _158
REMARK   67  A    between atoms: _158  and  _159
REMARK   68  A    between atoms: _161  and  _163
REMARK   69  A    between atoms: _163  and  _164
REMARK   70  A    between atoms: _163  and  _166
REMARK   71  A    between atoms: _166  and  _167
REMARK   72  A    between atoms: _170  and  _172
REMARK   73  A    between atoms: _172  and  _173
REMARK   74  A    between atoms: _175  and  _177
REMARK   75  A    between atoms: _177  and  _178
REMARK   76  A    between atoms: _180  and  _182
REMARK   77  A    between atoms: _182  and  _183
REMARK   78  A    between atoms: _182  and  _185
REMARK   79  A    between atoms: _185  and  _186
REMARK   80  A    between atoms: _186  and  _187
REMARK   81  A    between atoms: _189  and  _191
REMARK   82  A    between atoms: _191  and  _192
REMARK   83  A    between atoms: _191  and  _194
REMARK   84  A    between atoms: _194  and  _195
REMARK   85  A    between atoms: _198  and  _200
REMARK   86  A    between atoms: _200  and  _201
REMARK   87  A    between atoms: _200  and  _203
REMARK   88  A    between atoms: _203  and  _204
REMARK   89  A    between atoms: _208  and  _209
REMARK   90  A    between atoms: _214  and  _216
REMARK   91  A    between atoms: _216  and  _217
REMARK   92  A    between atoms: _220  and  _222
REMARK   93  A    between atoms: _222  and  _223
REMARK   94  A    between atoms: _222  and  _225
REMARK   95  A    between atoms: _225  and  _226
REMARK   96  A    between atoms: _231  and  _233
REMARK   97  A    between atoms: _233  and  _234
REMARK   98  A    between atoms: _233  and  _236
REMARK   99  A    between atoms: _236  and  _237
REMARK  100  A    between atoms: _240  and  _242
REMARK  101  A    between atoms: _242  and  _243
REMARK  102  A    between atoms: _242  and  _245
REMARK  103  A    between atoms: _245  and  _246
REMARK  104  A    between atoms: _249  and  _251
REMARK  105  A    between atoms: _251  and  _252
REMARK  106  A    between atoms: _254  and  _256
REMARK  107  A    between atoms: _256  and  _257
REMARK  108  A    between atoms: _256  and  _259
REMARK  109  A    between atoms: _259  and  _260
REMARK  110  A    between atoms: _260  and  _261
REMARK  111  A    between atoms: _261  and  _262
REMARK  112  A    between atoms: _271  and  _273
REMARK  113  A    between atoms: _273  and  _274
REMARK  114  A    between atoms: _273  and  _276
REMARK  115  A    between atoms: _276  and  _277
REMARK  116  A    between atoms: _282  and  _284
REMARK  117  A    between atoms: _284  and  _285
REMARK  118  A    between atoms: _284  and  _287
REMARK  119  A    between atoms: _287  and  _288
REMARK  120  A    between atoms: _288  and  _289
REMARK  121  A    between atoms: _289  and  _290
REMARK  122  A    between atoms: _299  and  _301
REMARK  123  A    between atoms: _301  and  _302
REMARK  124  A    between atoms: _301  and  _304
REMARK  125  A    between atoms: _304  and  _305
REMARK  126  A    between atoms: _311  and  _313
REMARK  127  A    between atoms: _313  and  _314
REMARK  128  A    between atoms: _313  and  _316
REMARK  129  A    between atoms: _316  and  _317
REMARK  130  A    between atoms: _320  and  _322
REMARK  131  A    between atoms: _322  and  _323
REMARK  132  A    between atoms: _322  and  _325
REMARK  133  A    between atoms: _325  and  _326
REMARK  134  A    between atoms: _329  and  _331
REMARK  135  A    between atoms: _331  and  _332
REMARK  136  A    between atoms: _331  and  _334
REMARK  137  A    between atoms: _334  and  _335
REMARK  138  A    between atoms: _338  and  _340
REMARK  139  A    between atoms: _340  and  _341
REMARK  140  A    between atoms: _340  and  _343
REMARK  141  A    between atoms: _343  and  _344
REMARK  142  A    between atoms: _347  and  _349
REMARK  143  A    between atoms: _349  and  _350
REMARK  144  A    between atoms: _352  and  _354
REMARK  145  A    between atoms: _354  and  _355
REMARK  146  A    between atoms: _358  and  _360
REMARK  147  A    between atoms: _360  and  _361
REMARK  148  A    between atoms: _360  and  _363
REMARK  149  A    between atoms: _363  and  _364
REMARK  150  A    between atoms: _367  and  _369
REMARK  151  A    between atoms: _369  and  _370
REMARK  152  A    between atoms: _369  and  _372
REMARK  153  A    between atoms: _372  and  _373
REMARK  154  A    between atoms: _376  and  _378
REMARK  155  A    between atoms: _378  and  _379
REMARK  156  A    between atoms: _378  and  _381
REMARK  157  A    between atoms: _381  and  _382
REMARK  158  A    between atoms: _385  and  _387
REMARK  159  A    between atoms: _387  and  _388
REMARK  160  A    between atoms: _387  and  _390
REMARK  161  A    between atoms: _390  and  _391
REMARK  162  A    between atoms: _394  and  _396
REMARK  163  A    between atoms: _396  and  _397
REMARK  164  A    between atoms: _396  and  _399
REMARK  165  A    between atoms: _399  and  _400
REMARK  166  A    between atoms: _400  and  _401
REMARK  167  A    between atoms: _401  and  _402
REMARK  168  A    between atoms: _402  and  _403
REMARK  169  A    between atoms: _407  and  _409
REMARK  170  A    between atoms: _409  and  _410
REMARK  171  A    between atoms: _409  and  _412
REMARK  172  A    between atoms: _415  and  _417
REMARK  173  A    between atoms: _417  and  _418
REMARK  174  A    between atoms: _417  and  _420
REMARK  175  A    between atoms: _423  and  _425
REMARK  176  A    between atoms: _425  and  _426
REMARK  177  A    between atoms: _428  and  _430
REMARK  178  A    between atoms: _430  and  _431
REMARK  179  A    between atoms: _433  and  _435
REMARK  180  A    between atoms: _435  and  _436
REMARK  181  A    between atoms: _435  and  _438
REMARK  182  A    between atoms: _438  and  _439
REMARK  183  A    between atoms: _442  and  _444
REMARK  184  A    between atoms: _444  and  _445
REMARK  185  A    between atoms: _447  and  _449
REMARK  186  A    between atoms: _449  and  _450
REMARK  187  A    between atoms: _452  and  _454
REMARK  188  A    between atoms: _454  and  _455
REMARK  189  A    between atoms: _454  and  _457
REMARK  190  A    between atoms: _457  and  _458
REMARK  191  A    between atoms: _458  and  _459
REMARK  192  A    between atoms: _461  and  _463
REMARK  193  A    between atoms: _463  and  _464
REMARK  194  A    between atoms: _463  and  _466
REMARK  195  A    between atoms: _466  and  _467
REMARK  196  A    between atoms: _470  and  _472
REMARK  197  A    between atoms: _472  and  _473
REMARK  198  A    between atoms: _472  and  _475
REMARK  199  A    between atoms: _475  and  _476
REMARK  200  A    between atoms: _480  and  _481
REMARK  201  A    between atoms: _486  and  _488
REMARK  202  A    between atoms: _488  and  _489
REMARK  203  A    between atoms: _492  and  _494
REMARK  204  A    between atoms: _494  and  _495
REMARK  205  A    between atoms: _494  and  _497
REMARK  206  A    between atoms: _497  and  _498
REMARK  207  A    between atoms: _503  and  _505
REMARK  208  A    between atoms: _505  and  _506
REMARK  209  A    between atoms: _505  and  _508
REMARK  210  A    between atoms: _508  and  _509
REMARK  211  A    between atoms: _512  and  _514
REMARK  212  A    between atoms: _514  and  _515
REMARK  213  A    between atoms: _514  and  _517
REMARK  214  A    between atoms: _517  and  _518
REMARK  215  A    between atoms: _521  and  _523
REMARK  216  A    between atoms: _523  and  _524
REMARK  217  A    between atoms: _526  and  _528
REMARK  218  A    between atoms: _528  and  _529
REMARK  219  A    between atoms: _528  and  _531
REMARK  220  A    between atoms: _531  and  _532
REMARK  221  A    between atoms: _532  and  _533
REMARK  222  A    between atoms: _533  and  _534
REMARK  223  A    between atoms: _543  and  _545
REMARK  224  A    between atoms: _545  and  _546
REMARK  225  A    between atoms: _545  and  _548
REMARK  226  A    between atoms: _548  and  _549
REMARK                            x       y       z     vdW  Elec       q    Type
REMARK                         _______ _______ _______ _____ _____    ______ ____
ROOT
ATOM      1  O   UNL     1     -15.434  -0.287   0.458  0.00  0.00    +0.000 OA
ATOM      2  O   UNL     1     -15.397   0.250  -1.129  0.00  0.00    +0.000 OA
ENDROOT
TORSDOF 0
REMARK  Name = ../refined-set-2016/2rkf/2rkf_pocket.pdb
REMARK  226 active torsions:
REMARK  status: ('A' for Active; 'I' for Inactive)
REMARK    1  A    between atoms: _1  and  _3
REMARK    2  A    between atoms: _3  and  _4
REMARK    3  A    between atoms: _3  and  _6
REMARK    4  A    between atoms: _6  and  _7
REMARK    5  A    between atoms: _7  and  _8
REMARK    6  A    between atoms: _8  and  _9
REMARK    7  A    between atoms: _18  and  _20
REMARK    8  A    between atoms: _20  and  _21
REMARK    9  A    between atoms: _20  and  _23
REMARK   10  A    between atoms: _23  and  _24
REMARK   11  A    between atoms: _30  and  _32
REMARK   12  A    between atoms: _32  and  _33
REMARK   13  A    between atoms: _32  and  _35
REMARK   14  A    between atoms: _35  and  _36
REMARK   15  A    between atoms: _39  and  _41
REMARK   16  A    between atoms: _41  and  _42
REMARK   17  A    between atoms: _41  and  _44
REMARK   18  A    between atoms: _44  and  _45
REMARK   19  A    between atoms: _48  and  _50
REMARK   20  A    between atoms: _50  and  _51
REMARK   21  A    between atoms: _50  and  _53
REMARK   22  A    between atoms: _53  and  _54
REMARK   23  A    between atoms: _57  and  _59
REMARK   24  A    between atoms: _59  and  _60
REMARK   25  A    between atoms: _59  and  _62
REMARK   26  A    between atoms: _62  and  _63
REMARK   27  A    between atoms: _66  and  _68
REMARK   28  A    between atoms: _68  and  _69
REMARK   29  A    between atoms: _71  and  _73
REMARK   30  A    between atoms: _73  and  _74
REMARK   31  A    between atoms: _77  and  _79
REMARK   32  A    between atoms: _79  and  _80
REMARK   33  A    between atoms: _79  and  _82
REMARK   34  A    between atoms: _82  and  _83
REMARK   35  A    between atoms: _86  and  _88
REMARK   36  A    between atoms: _88  and  _89
REMARK   37  A    between atoms: _88  and  _91
REMARK   38  A    between atoms: _91  and  _92
REMARK   39  A    between atoms: _95  and  _97
REMARK   40  A    between atoms: _97  and  _98
REMARK   41  A    between atoms: _97  and  _100
REMARK   42  A    between atoms: _100  and  _101
REMARK   43  A    between atoms: _104  and  _106
REMARK   44  A    between atoms: _106  and  _107
REMARK   45  A    between atoms: _106  and  _109
REMARK   46  A    between atoms: _109  and  _110
REMARK   47  A    between atoms: _113  and  _115
REMARK   48  A    between atoms: _115  and  _116
REMARK   49  A    between atoms: _115  and  _118
REMARK   50  A    between atoms: _118  and  _119
REMARK   51  A    between atoms: _122  and  _124
REMARK   52  A    between atoms: _124  and  _125
REMARK   53  A    between atoms: _124  and  _127
REMARK   54  A    between atoms: _127  and  _128
REMARK   55  A    between atoms: _128  and  _129
REMARK   56  A    between atoms: _129  and  _130
REMARK   57  A    between atoms: _130  and  _131
REMARK   58  A    between atoms: _135  and  _137
REMARK   59  A    between atoms: _137  and  _138
REMARK   60  A    between atoms: _137  and  _140
REMARK   61  A    between atoms: _143  and  _145
REMARK   62  A    between atoms: _145  and  _146
REMARK   63  A    between atoms: _145  and  _148
REMARK   64  A    between atoms: _151  and  _153
REMARK   65  A    between atoms: _153  and  _154
REMARK   66  A    between atoms: _156  and  _158
REMARK   67  A    between atoms: _158  and  _159
REMARK   68  A    between atoms: _161  and  _163
REMARK   69  A    between atoms: _163  and  _164
REMARK   70  A    between atoms: _163  and  _166
REMARK   71  A    between atoms: _166  and  _167
REMARK   72  A    between atoms: _170  and  _172
REMARK   73  A    between atoms: _172  and  _173
REMARK   74  A    between atoms: _175  and  _177
REMARK   75  A    between atoms: _177  and  _178
REMARK   76  A    between atoms: _180  and  _182
REMARK   77  A    between atoms: _182  and  _183
REMARK   78  A    between atoms: _182  and  _185
REMARK   79  A    between atoms: _185  and  _186
REMARK   80  A    between atoms: _186  and  _187
REMARK   81  A    between atoms: _189  and  _191
REMARK   82  A    between atoms: _191  and  _192
REMARK   83  A    between atoms: _191  and  _194
REMARK   84  A    between atoms: _194  and  _195
REMARK   85  A    between atoms: _198  and  _200
REMARK   86  A    between atoms: _200  and  _201
REMARK   87  A    between atoms: _200  and  _203
REMARK   88  A    between atoms: _203  and  _204
REMARK   89  A    between atoms: _208  and  _209
REMARK   90  A    between atoms: _214  and  _216
REMARK   91  A    between atoms: _216  and  _217
REMARK   92  A    between atoms: _220  and  _222
REMARK   93  A    between atoms: _222  and  _223
REMARK   94  A    between atoms: _222  and  _225
REMARK   95  A    between atoms: _225  and  _226
REMARK   96  A    between atoms: _231  and  _233
REMARK   97  A    between atoms: _233  and  _234
REMARK   98  A    between atoms: _233  and  _236
REMARK   99  A    between atoms: _236  and  _237
REMARK  100  A    between atoms: _240  and  _242
REMARK  101  A    between atoms: _242  and  _243
REMARK  102  A    between atoms: _242  and  _245
REMARK  103  A    between atoms: _245  and  _246
REMARK  104  A    between atoms: _249  and  _251
REMARK  105  A    between atoms: _251  and  _252
REMARK  106  A    between atoms: _254  and  _256
REMARK  107  A    between atoms: _256  and  _257
REMARK  108  A    between atoms: _256  and  _259
REMARK  109  A    between atoms: _259  and  _260
REMARK  110  A    between atoms: _260  and  _261
REMARK  111  A    between atoms: _261  and  _262
REMARK  112  A    between atoms: _271  and  _273
REMARK  113  A    between atoms: _273  and  _274
REMARK  114  A    between atoms: _273  and  _276
REMARK  115  A    between atoms: _276  and  _277
REMARK  116  A    between atoms: _282  and  _284
REMARK  117  A    between atoms: _284  and  _285
REMARK  118  A    between atoms: _284  and  _287
REMARK  119  A    between atoms: _287  and  _288
REMARK  120  A    between atoms: _288  and  _289
REMARK  121  A    between atoms: _289  and  _290
REMARK  122  A    between atoms: _299  and  _301
REMARK  123  A    between atoms: _301  and  _302
REMARK  124  A    between atoms: _301  and  _304
REMARK  125  A    between atoms: _304  and  _305
REMARK  126  A    between atoms: _311  and  _313
REMARK  127  A    between atoms: _313  and  _314
REMARK  128  A    between atoms: _313  and  _316
REMARK  129  A    between atoms: _316  and  _317
REMARK  130  A    between atoms: _320  and  _322
REMARK  131  A    between atoms: _322  and  _323
REMARK  132  A    between atoms: _322  and  _325
REMARK  133  A    between atoms: _325  and  _326
REMARK  134  A    between atoms: _329  and  _331
REMARK  135  A    between atoms: _331  and  _332
REMARK  136  A    between atoms: _331  and  _334
REMARK  137  A    between atoms: _334  and  _335
REMARK  138  A    between atoms: _338  and  _340
REMARK  139  A    between atoms: _340  and  _341
REMARK  140  A    between atoms: _340  and  _343
REMARK  141  A    between atoms: _343  and  _344
REMARK  142  A    between atoms: _347  and  _349
REMARK  143  A    between atoms: _349  and  _350
REMARK  144  A    between atoms: _352  and  _354
REMARK  145  A    between atoms: _354  and  _355
REMARK  146  A    between atoms: _358  and  _360
REMARK  147  A    between atoms: _360  and  _361
REMARK  148  A    between atoms: _360  and  _363
REMARK  149  A    between atoms: _363  and  _364
REMARK  150  A    between atoms: _367  and  _369
REMARK  151  A    between atoms: _369  and  _370
REMARK  152  A    between atoms: _369  and  _372
REMARK  153  A    between atoms: _372  and  _373
REMARK  154  A    between atoms: _376  and  _378
REMARK  155  A    between atoms: _378  and  _379
REMARK  156  A    between atoms: _378  and  _381
REMARK  157  A    between atoms: _381  and  _382
REMARK  158  A    between atoms: _385  and  _387
REMARK  159  A    between atoms: _387  and  _388
REMARK  160  A    between atoms: _387  and  _390
REMARK  161  A    between atoms: _390  and  _391
REMARK  162  A    between atoms: _394  and  _396
REMARK  163  A    between atoms: _396  and  _397
REMARK  164  A    between atoms: _396  and  _399
REMARK  165  A    between atoms: _399  and  _400
REMARK  166  A    between atoms: _400  and  _401
REMARK  167  A    between atoms: _401  and  _402
REMARK  168  A    between atoms: _402  and  _403
REMARK  169  A    between atoms: _407  and  _409
REMARK  170  A    between atoms: _409  and  _410
REMARK  171  A    between atoms: _409  and  _412
REMARK  172  A    between atoms: _415  and  _417
REMARK  173  A    between atoms: _417  and  _418
REMARK  174  A    between atoms: _417  and  _420
REMARK  175  A    between atoms: _423  and  _425
REMARK  176  A    between atoms: _425  and  _426
REMARK  177  A    between atoms: _428  and  _430
REMARK  178  A    between atoms: _430  and  _431
REMARK  179  A    between atoms: _433  and  _435
REMARK  180  A    between atoms: _435  and  _436
REMARK  181  A    between atoms: _435  and  _438
REMARK  182  A    between atoms: _438  and  _439
REMARK  183  A    between atoms: _442  and  _444
REMARK  184  A    between atoms: _444  and  _445
REMARK  185  A    between atoms: _447  and  _449
REMARK  186  A    between atoms: _449  and  _450
REMARK  187  A    between atoms: _452  and  _454
REMARK  188  A    between atoms: _454  and  _455
REMARK  189  A    between atoms: _454  and  _457
REMARK  190  A    between atoms: _457  and  _458
REMARK  191  A    between atoms: _458  and  _459
REMARK  192  A    between atoms: _461  and  _463
REMARK  193  A    between atoms: _463  and  _464
REMARK  194  A    between atoms: _463  and  _466
REMARK  195  A    between atoms: _466  and  _467
REMARK  196  A    between atoms: _470  and  _472
REMARK  197  A    between atoms: _472  and  _473
REMARK  198  A    between atoms: _472  and  _475
REMARK  199  A    between atoms: _475  and  _476
REMARK  200  A    between atoms: _480  and  _481
REMARK  201  A    between atoms: _486  and  _488
REMARK  202  A    between atoms: _488  and  _489
REMARK  203  A    between atoms: _492  and  _494
REMARK  204  A    between atoms: _494  and  _495
REMARK  205  A    between atoms: _494  and  _497
REMARK  206  A    between atoms: _497  and  _498
REMARK  207  A    between atoms: _503  and  _505
REMARK  208  A    between atoms: _505  and  _506
REMARK  209  A    between atoms: _505  and  _508
REMARK  210  A    between atoms: _508  and  _509
REMARK  211  A    between atoms: _512  and  _514
REMARK  212  A    between atoms: _514  and  _515
REMARK  213  A    between atoms: _514  and  _517
REMARK  214  A    between atoms: _517  and  _518
REMARK  215  A    between atoms: _521  and  _523
REMARK  216  A    between atoms: _523  and  _524
REMARK  217  A    between atoms: _526  and  _528
REMARK  218  A    between atoms: _528  and  _529
REMARK  219  A    between atoms: _528  and  _531
REMARK  220  A    between atoms: _531  and  _532
REMARK  221  A    between atoms: _532  and  _533
REMARK  222  A    between atoms: _533  and  _534
REMARK  223  A    between atoms: _543  and  _545
REMARK  224  A    between atoms: _545  and  _546
REMARK  225  A    between atoms: _545  and  _548
REMARK  226  A    between atoms: _548  and  _549
REMARK                            x       y       z     vdW  Elec       q    Type
REMARK                         _______ _______ _______ _____ _____    ______ ____
ROOT
ATOM      1  O   HOH     1     -21.656  -5.527   3.968  0.00  0.00    +0.000 OA
ENDROOT
TORSDOF 0
REMARK  Name = ../refined-set-2016/2rkf/2rkf_pocket.pdb
REMARK  226 active torsions:
REMARK  status: ('A' for Active; 'I' for Inactive)
REMARK    1  A    between atoms: _1  and  _3
REMARK    2  A    between atoms: _3  and  _4
REMARK    3  A    between atoms: _3  and  _6
REMARK    4  A    between atoms: _6  and  _7
REMARK    5  A    between atoms: _7  and  _8
REMARK    6  A    between atoms: _8  and  _9
REMARK    7  A    between atoms: _18  and  _20
REMARK    8  A    between atoms: _20  and  _21
REMARK    9  A    between atoms: _20  and  _23
REMARK   10  A    between atoms: _23  and  _24
REMARK   11  A    between atoms: _30  and  _32
REMARK   12  A    between atoms: _32  and  _33
REMARK   13  A    between atoms: _32  and  _35
REMARK   14  A    between atoms: _35  and  _36
REMARK   15  A    between atoms: _39  and  _41
REMARK   16  A    between atoms: _41  and  _42
REMARK   17  A    between atoms: _41  and  _44
REMARK   18  A    between atoms: _44  and  _45
REMARK   19  A    between atoms: _48  and  _50
REMARK   20  A    between atoms: _50  and  _51
REMARK   21  A    between atoms: _50  and  _53
REMARK   22  A    between atoms: _53  and  _54
REMARK   23  A    between atoms: _57  and  _59
REMARK   24  A    between atoms: _59  and  _60
REMARK   25  A    between atoms: _59  and  _62
REMARK   26  A    between atoms: _62  and  _63
REMARK   27  A    between atoms: _66  and  _68
REMARK   28  A    between atoms: _68  and  _69
REMARK   29  A    between atoms: _71  and  _73
REMARK   30  A    between atoms: _73  and  _74
REMARK   31  A    between atoms: _77  and  _79
REMARK   32  A    between atoms: _79  and  _80
REMARK   33  A    between atoms: _79  and  _82
REMARK   34  A    between atoms: _82  and  _83
REMARK   35  A    between atoms: _86  and  _88
REMARK   36  A    between atoms: _88  and  _89
REMARK   37  A    between atoms: _88  and  _91
REMARK   38  A    between atoms: _91  and  _92
REMARK   39  A    between atoms: _95  and  _97
REMARK   40  A    between atoms: _97  and  _98
REMARK   41  A    between atoms: _97  and  _100
REMARK   42  A    between atoms: _100  and  _101
REMARK   43  A    between atoms: _104  and  _106
REMARK   44  A    between atoms: _106  and  _107
REMARK   45  A    between atoms: _106  and  _109
REMARK   46  A    between atoms: _109  and  _110
REMARK   47  A    between atoms: _113  and  _115
REMARK   48  A    between atoms: _115  and  _116
REMARK   49  A    between atoms: _115  and  _118
REMARK   50  A    between atoms: _118  and  _119
REMARK   51  A    between atoms: _122  and  _124
REMARK   52  A    between atoms: _124  and  _125
REMARK   53  A    between atoms: _124  and  _127
REMARK   54  A    between atoms: _127  and  _128
REMARK   55  A    between atoms: _128  and  _129
REMARK   56  A    between atoms: _129  and  _130
REMARK   57  A    between atoms: _130  and  _131
REMARK   58  A    between atoms: _135  and  _137
REMARK   59  A    between atoms: _137  and  _138
REMARK   60  A    between atoms: _137  and  _140
REMARK   61  A    between atoms: _143  and  _145
REMARK   62  A    between atoms: _145  and  _146
REMARK   63  A    between atoms: _145  and  _148
REMARK   64  A    between atoms: _151  and  _153
REMARK   65  A    between atoms: _153  and  _154
REMARK   66  A    between atoms: _156  and  _158
REMARK   67  A    between atoms: _158  and  _159
REMARK   68  A    between atoms: _161  and  _163
REMARK   69  A    between atoms: _163  and  _164
REMARK   70  A    between atoms: _163  and  _166
REMARK   71  A    between atoms: _166  and  _167
REMARK   72  A    between atoms: _170  and  _172
REMARK   73  A    between atoms: _172  and  _173
REMARK   74  A    between atoms: _175  and  _177
REMARK   75  A    between atoms: _177  and  _178
REMARK   76  A    between atoms: _180  and  _182
REMARK   77  A    between atoms: _182  and  _183
REMARK   78  A    between atoms: _182  and  _185
REMARK   79  A    between atoms: _185  and  _186
REMARK   80  A    between atoms: _186  and  _187
REMARK   81  A    between atoms: _189  and  _191
REMARK   82  A    between atoms: _191  and  _192
REMARK   83  A    between atoms: _191  and  _194
REMARK   84  A    between atoms: _194  and  _195
REMARK   85  A    between atoms: _198  and  _200
REMARK   86  A    between atoms: _200  and  _201
REMARK   87  A    between atoms: _200  and  _203
REMARK   88  A    between atoms: _203  and  _204
REMARK   89  A    between atoms: _208  and  _209
REMARK   90  A    between atoms: _214  and  _216
REMARK   91  A    between atoms: _216  and  _217
REMARK   92  A    between atoms: _220  and  _222
REMARK   93  A    between atoms: _222  and  _223
REMARK   94  A    between atoms: _222  and  _225
REMARK   95  A    between atoms: _225  and  _226
REMARK   96  A    between atoms: _231  and  _233
REMARK   97  A    between atoms: _233  and  _234
REMARK   98  A    between atoms: _233  and  _236
REMARK   99  A    between atoms: _236  and  _237
REMARK  100  A    between atoms: _240  and  _242
REMARK  101  A    between atoms: _242  and  _243
REMARK  102  A    between atoms: _242  and  _245
REMARK  103  A    between atoms: _245  and  _246
REMARK  104  A    between atoms: _249  and  _251
REMARK  105  A    between atoms: _251  and  _252
REMARK  106  A    between atoms: _254  and  _256
REMARK  107  A    between atoms: _256  and  _257
REMARK  108  A    between atoms: _256  and  _259
REMARK  109  A    between atoms: _259  and  _260
REMARK  110  A    between atoms: _260  and  _261
REMARK  111  A    between atoms: _261  and  _262
REMARK  112  A    between atoms: _271  and  _273
REMARK  113  A    between atoms: _273  and  _274
REMARK  114  A    between atoms: _273  and  _276
REMARK  115  A    between atoms: _276  and  _277
REMARK  116  A    between atoms: _282  and  _284
REMARK  117  A    between atoms: _284  and  _285
REMARK  118  A    between atoms: _284  and  _287
REMARK  119  A    between atoms: _287  and  _288
REMARK  120  A    between atoms: _288  and  _289
REMARK  121  A    between atoms: _289  and  _290
REMARK  122  A    between atoms: _299  and  _301
REMARK  123  A    between atoms: _301  and  _302
REMARK  124  A    between atoms: _301  and  _304
REMARK  125  A    between atoms: _304  and  _305
REMARK  126  A    between atoms: _311  and  _313
REMARK  127  A    between atoms: _313  and  _314
REMARK  128  A    between atoms: _313  and  _316
REMARK  129  A    between atoms: _316  and  _317
REMARK  130  A    between atoms: _320  and  _322
REMARK  131  A    between atoms: _322  and  _323
REMARK  132  A    between atoms: _322  and  _325
REMARK  133  A    between atoms: _325  and  _326
REMARK  134  A    between atoms: _329  and  _331
REMARK  135  A    between atoms: _331  and  _332
REMARK  136  A    between atoms: _331  and  _334
REMARK  137  A    between atoms: _334  and  _335
REMARK  138  A    between atoms: _338  and  _340
REMARK  139  A    between atoms: _340  and  _341
REMARK  140  A    between atoms: _340  and  _343
REMARK  141  A    between atoms: _343  and  _344
REMARK  142  A    between atoms: _347  and  _349
REMARK  143  A    between atoms: _349  and  _350
REMARK  144  A    between atoms: _352  and  _354
REMARK  145  A    between atoms: _354  and  _355
REMARK  146  A    between atoms: _358  and  _360
REMARK  147  A    between atoms: _360  and  _361
REMARK  148  A    between atoms: _360  and  _363
REMARK  149  A    between atoms: _363  and  _364
REMARK  150  A    between atoms: _367  and  _369
REMARK  151  A    between atoms: _369  and  _370
REMARK  152  A    between atoms: _369  and  _372
REMARK  153  A    between atoms: _372  and  _373
REMARK  154  A    between atoms: _376  and  _378
REMARK  155  A    between atoms: _378  and  _379
REMARK  156  A    between atoms: _378  and  _381
REMARK  157  A    between atoms: _381  and  _382
REMARK  158  A    between atoms: _385  and  _387
REMARK  159  A    between atoms: _387  and  _388
REMARK  160  A    between atoms: _387  and  _390
REMARK  161  A    between atoms: _390  and  _391
REMARK  162  A    between atoms: _394  and  _396
REMARK  163  A    between atoms: _396  and  _397
REMARK  164  A    between atoms: _396  and  _399
REMARK  165  A    between atoms: _399  and  _400
REMARK  166  A    between atoms: _400  and  _401
REMARK  167  A    between atoms: _401  and  _402
REMARK  168  A    between atoms: _402  and  _403
REMARK  169  A    between atoms: _407  and  _409
REMARK  170  A    between atoms: _409  and  _410
REMARK  171  A    between atoms: _409  and  _412
REMARK  172  A    between atoms: _415  and  _417
REMARK  173  A    between atoms: _417  and  _418
REMARK  174  A    between atoms: _417  and  _420
REMARK  175  A    between atoms: _423  and  _425
REMARK  176  A    between atoms: _425  and  _426
REMARK  177  A    between atoms: _428  and  _430
REMARK  178  A    between atoms: _430  and  _431
REMARK  179  A    between atoms: _433  and  _435
REMARK  180  A    between atoms: _435  and  _436
REMARK  181  A    between atoms: _435  and  _438
REMARK  182  A    between atoms: _438  and  _439
REMARK  183  A    between atoms: _442  and  _444
REMARK  184  A    between atoms: _444  and  _445
REMARK  185  A    between atoms: _447  and  _449
REMARK  186  A    between atoms: _449  and  _450
REMARK  187  A    between atoms: _452  and  _454
REMARK  188  A    between atoms: _454  and  _455
REMARK  189  A    between atoms: _454  and  _457
REMARK  190  A    between atoms: _457  and  _458
REMARK  191  A    between atoms: _458  and  _459
REMARK  192  A    between atoms: _461  and  _463
REMARK  193  A    between atoms: _463  and  _464
REMARK  194  A    between atoms: _463  and  _466
REMARK  195  A    between atoms: _466  and  _467
REMARK  196  A    between atoms: _470  and  _472
REMARK  197  A    between atoms: _472  and  _473
REMARK  198  A    between atoms: _472  and  _475
REMARK  199  A    between atoms: _475  and  _476
REMARK  200  A    between atoms: _480  and  _481
REMARK  201  A    between atoms: _486  and  _488
REMARK  202  A    between atoms: _488  and  _489
REMARK  203  A    between atoms: _492  and  _494
REMARK  204  A    between atoms: _494  and  _495
REMARK  205  A    between atoms: _494  and  _497
REMARK  206  A    between atoms: _497  and  _498
REMARK  207  A    between atoms: _503  and  _505
REMARK  208  A    between atoms: _505  and  _506
REMARK  209  A    between atoms: _505  and  _508
REMARK  210  A    between atoms: _508  and  _509
REMARK  211  A    between atoms: _512  and  _514
REMARK  212  A    between atoms: _514  and  _515
REMARK  213  A    between atoms: _514  and  _517
REMARK  214  A    between atoms: _517  and  _518
REMARK  215  A    between atoms: _521  and  _523
REMARK  216  A    between atoms: _523  and  _524
REMARK  217  A    between atoms: _526  and  _528
REMARK  218  A    between atoms: _528  and  _529
REMARK  219  A    between atoms: _528  and  _531
REMARK  220  A    between atoms: _531  and  _532
REMARK  221  A    between atoms: _532  and  _533
REMARK  222  A    between atoms: _533  and  _534
REMARK  223  A    between atoms: _543  and  _545
REMARK  224  A    between atoms: _545  and  _546
REMARK  225  A    between atoms: _545  and  _548
REMARK  226  A    between atoms: _548  and  _549
REMARK                            x       y       z     vdW  Elec       q    Type
REMARK                         _______ _______ _______ _____ _____    ______ ____
ROOT
ATOM      1  O   HOH     1     -21.650   5.501  -4.544  0.00  0.00    +0.000 OA
ENDROOT
TORSDOF 0
REMARK  Name = ../refined-set-2016/2rkf/2rkf_pocket.pdb
REMARK  226 active torsions:
REMARK  status: ('A' for Active; 'I' for Inactive)
REMARK    1  A    between atoms: _1  and  _3
REMARK    2  A    between atoms: _3  and  _4
REMARK    3  A    between atoms: _3  and  _6
REMARK    4  A    between atoms: _6  and  _7
REMARK    5  A    between atoms: _7  and  _8
REMARK    6  A    between atoms: _8  and  _9
REMARK    7  A    between atoms: _18  and  _20
REMARK    8  A    between atoms: _20  and  _21
REMARK    9  A    between atoms: _20  and  _23
REMARK   10  A    between atoms: _23  and  _24
REMARK   11  A    between atoms: _30  and  _32
REMARK   12  A    between atoms: _32  and  _33
REMARK   13  A    between atoms: _32  and  _35
REMARK   14  A    between atoms: _35  and  _36
REMARK   15  A    between atoms: _39  and  _41
REMARK   16  A    between atoms: _41  and  _42
REMARK   17  A    between atoms: _41  and  _44
REMARK   18  A    between atoms: _44  and  _45
REMARK   19  A    between atoms: _48  and  _50
REMARK   20  A    between atoms: _50  and  _51
REMARK   21  A    between atoms: _50  and  _53
REMARK   22  A    between atoms: _53  and  _54
REMARK   23  A    between atoms: _57  and  _59
REMARK   24  A    between atoms: _59  and  _60
REMARK   25  A    between atoms: _59  and  _62
REMARK   26  A    between atoms: _62  and  _63
REMARK   27  A    between atoms: _66  and  _68
REMARK   28  A    between atoms: _68  and  _69
REMARK   29  A    between atoms: _71  and  _73
REMARK   30  A    between atoms: _73  and  _74
REMARK   31  A    between atoms: _77  and  _79
REMARK   32  A    between atoms: _79  and  _80
REMARK   33  A    between atoms: _79  and  _82
REMARK   34  A    between atoms: _82  and  _83
REMARK   35  A    between atoms: _86  and  _88
REMARK   36  A    between atoms: _88  and  _89
REMARK   37  A    between atoms: _88  and  _91
REMARK   38  A    between atoms: _91  and  _92
REMARK   39  A    between atoms: _95  and  _97
REMARK   40  A    between atoms: _97  and  _98
REMARK   41  A    between atoms: _97  and  _100
REMARK   42  A    between atoms: _100  and  _101
REMARK   43  A    between atoms: _104  and  _106
REMARK   44  A    between atoms: _106  and  _107
REMARK   45  A    between atoms: _106  and  _109
REMARK   46  A    between atoms: _109  and  _110
REMARK   47  A    between atoms: _113  and  _115
REMARK   48  A    between atoms: _115  and  _116
REMARK   49  A    between atoms: _115  and  _118
REMARK   50  A    between atoms: _118  and  _119
REMARK   51  A    between atoms: _122  and  _124
REMARK   52  A    between atoms: _124  and  _125
REMARK   53  A    between atoms: _124  and  _127
REMARK   54  A    between atoms: _127  and  _128
REMARK   55  A    between atoms: _128  and  _129
REMARK   56  A    between atoms: _129  and  _130
REMARK   57  A    between atoms: _130  and  _131
REMARK   58  A    between atoms: _135  and  _137
REMARK   59  A    between atoms: _137  and  _138
REMARK   60  A    between atoms: _137  and  _140
REMARK   61  A    between atoms: _143  and  _145
REMARK   62  A    between atoms: _145  and  _146
REMARK   63  A    between atoms: _145  and  _148
REMARK   64  A    between atoms: _151  and  _153
REMARK   65  A    between atoms: _153  and  _154
REMARK   66  A    between atoms: _156  and  _158
REMARK   67  A    between atoms: _158  and  _159
REMARK   68  A    between atoms: _161  and  _163
REMARK   69  A    between atoms: _163  and  _164
REMARK   70  A    between atoms: _163  and  _166
REMARK   71  A    between atoms: _166  and  _167
REMARK   72  A    between atoms: _170  and  _172
REMARK   73  A    between atoms: _172  and  _173
REMARK   74  A    between atoms: _175  and  _177
REMARK   75  A    between atoms: _177  and  _178
REMARK   76  A    between atoms: _180  and  _182
REMARK   77  A    between atoms: _182  and  _183
REMARK   78  A    between atoms: _182  and  _185
REMARK   79  A    between atoms: _185  and  _186
REMARK   80  A    between atoms: _186  and  _187
REMARK   81  A    between atoms: _189  and  _191
REMARK   82  A    between atoms: _191  and  _192
REMARK   83  A    between atoms: _191  and  _194
REMARK   84  A    between atoms: _194  and  _195
REMARK   85  A    between atoms: _198  and  _200
REMARK   86  A    between atoms: _200  and  _201
REMARK   87  A    between atoms: _200  and  _203
REMARK   88  A    between atoms: _203  and  _204
REMARK   89  A    between atoms: _208  and  _209
REMARK   90  A    between atoms: _214  and  _216
REMARK   91  A    between atoms: _216  and  _217
REMARK   92  A    between atoms: _220  and  _222
REMARK   93  A    between atoms: _222  and  _223
REMARK   94  A    between atoms: _222  and  _225
REMARK   95  A    between atoms: _225  and  _226
REMARK   96  A    between atoms: _231  and  _233
REMARK   97  A    between atoms: _233  and  _234
REMARK   98  A    between atoms: _233  and  _236
REMARK   99  A    between atoms: _236  and  _237
REMARK  100  A    between atoms: _240  and  _242
REMARK  101  A    between atoms: _242  and  _243
REMARK  102  A    between atoms: _242  and  _245
REMARK  103  A    between atoms: _245  and  _246
REMARK  104  A    between atoms: _249  and  _251
REMARK  105  A    between atoms: _251  and  _252
REMARK  106  A    between atoms: _254  and  _256
REMARK  107  A    between atoms: _256  and  _257
REMARK  108  A    between atoms: _256  and  _259
REMARK  109  A    between atoms: _259  and  _260
REMARK  110  A    between atoms: _260  and  _261
REMARK  111  A    between atoms: _261  and  _262
REMARK  112  A    between atoms: _271  and  _273
REMARK  113  A    between atoms: _273  and  _274
REMARK  114  A    between atoms: _273  and  _276
REMARK  115  A    between atoms: _276  and  _277
REMARK  116  A    between atoms: _282  and  _284
REMARK  117  A    between atoms: _284  and  _285
REMARK  118  A    between atoms: _284  and  _287
REMARK  119  A    between atoms: _287  and  _288
REMARK  120  A    between atoms: _288  and  _289
REMARK  121  A    between atoms: _289  and  _290
REMARK  122  A    between atoms: _299  and  _301
REMARK  123  A    between atoms: _301  and  _302
REMARK  124  A    between atoms: _301  and  _304
REMARK  125  A    between atoms: _304  and  _305
REMARK  126  A    between atoms: _311  and  _313
REMARK  127  A    between atoms: _313  and  _314
REMARK  128  A    between atoms: _313  and  _316
REMARK  129  A    between atoms: _316  and  _317
REMARK  130  A    between atoms: _320  and  _322
REMARK  131  A    between atoms: _322  and  _323
REMARK  132  A    between atoms: _322  and  _325
REMARK  133  A    between atoms: _325  and  _326
REMARK  134  A    between atoms: _329  and  _331
REMARK  135  A    between atoms: _331  and  _332
REMARK  136  A    between atoms: _331  and  _334
REMARK  137  A    between atoms: _334  and  _335
REMARK  138  A    between atoms: _338  and  _340
REMARK  139  A    between atoms: _340  and  _341
REMARK  140  A    between atoms: _340  and  _343
REMARK  141  A    between atoms: _343  and  _344
REMARK  142  A    between atoms: _347  and  _349
REMARK  143  A    between atoms: _349  and  _350
REMARK  144  A    between atoms: _352  and  _354
REMARK  145  A    between atoms: _354  and  _355
REMARK  146  A    between atoms: _358  and  _360
REMARK  147  A    between atoms: _360  and  _361
REMARK  148  A    between atoms: _360  and  _363
REMARK  149  A    between atoms: _363  and  _364
REMARK  150  A    between atoms: _367  and  _369
REMARK  151  A    between atoms: _369  and  _370
REMARK  152  A    between atoms: _369  and  _372
REMARK  153  A    between atoms: _372  and  _373
REMARK  154  A    between atoms: _376  and  _378
REMARK  155  A    between atoms: _378  and  _379
REMARK  156  A    between atoms: _378  and  _381
REMARK  157  A    between atoms: _381  and  _382
REMARK  158  A    between atoms: _385  and  _387
REMARK  159  A    between atoms: _387  and  _388
REMARK  160  A    between atoms: _387  and  _390
REMARK  161  A    between atoms: _390  and  _391
REMARK  162  A    between atoms: _394  and  _396
REMARK  163  A    between atoms: _396  and  _397
REMARK  164  A    between atoms: _396  and  _399
REMARK  165  A    between atoms: _399  and  _400
REMARK  166  A    between atoms: _400  and  _401
REMARK  167  A    between atoms: _401  and  _402
REMARK  168  A    between atoms: _402  and  _403
REMARK  169  A    between atoms: _407  and  _409
REMARK  170  A    between atoms: _409  and  _410
REMARK  171  A    between atoms: _409  and  _412
REMARK  172  A    between atoms: _415  and  _417
REMARK  173  A    between atoms: _417  and  _418
REMARK  174  A    between atoms: _417  and  _420
REMARK  175  A    between atoms: _423  and  _425
REMARK  176  A    between atoms: _425  and  _426
REMARK  177  A    between atoms: _428  and  _430
REMARK  178  A    between atoms: _430  and  _431
REMARK  179  A    between atoms: _433  and  _435
REMARK  180  A    between atoms: _435  and  _436
REMARK  181  A    between atoms: _435  and  _438
REMARK  182  A    between atoms: _438  and  _439
REMARK  183  A    between atoms: _442  and  _444
REMARK  184  A    between atoms: _444  and  _445
REMARK  185  A    between atoms: _447  and  _449
REMARK  186  A    between atoms: _449  and  _450
REMARK  187  A    between atoms: _452  and  _454
REMARK  188  A    between atoms: _454  and  _455
REMARK  189  A    between atoms: _454  and  _457
REMARK  190  A    between atoms: _457  and  _458
REMARK  191  A    between atoms: _458  and  _459
REMARK  192  A    between atoms: _461  and  _463
REMARK  193  A    between atoms: _463  and  _464
REMARK  194  A    between atoms: _463  and  _466
REMARK  195  A    between atoms: _466  and  _467
REMARK  196  A    between atoms: _470  and  _472
REMARK  197  A    between atoms: _472  and  _473
REMARK  198  A    between atoms: _472  and  _475
REMARK  199  A    between atoms: _475  and  _476
REMARK  200  A    between atoms: _480  and  _481
REMARK  201  A    between atoms: _486  and  _488
REMARK  202  A    between atoms: _488  and  _489
REMARK  203  A    between atoms: _492  and  _494
REMARK  204  A    between atoms: _494  and  _495
REMARK  205  A    between atoms: _494  and  _497
REMARK  206  A    between atoms: _497  and  _498
REMARK  207  A    between atoms: _503  and  _505
REMARK  208  A    between atoms: _505  and  _506
REMARK  209  A    between atoms: _505  and  _508
REMARK  210  A    between atoms: _508  and  _509
REMARK  211  A    between atoms: _512  and  _514
REMARK  212  A    between atoms: _514  and  _515
REMARK  213  A    between atoms: _514  and  _517
REMARK  214  A    between atoms: _517  and  _518
REMARK  215  A    between atoms: _521  and  _523
REMARK  216  A    between atoms: _523  and  _524
REMARK  217  A    between atoms: _526  and  _528
REMARK  218  A    between atoms: _528  and  _529
REMARK  219  A    between atoms: _528  and  _531
REMARK  220  A    between atoms: _531  and  _532
REMARK  221  A    between atoms: _532  and  _533
REMARK  222  A    between atoms: _533  and  _534
REMARK  223  A    between atoms: _543  and  _545
REMARK  224  A    between atoms: _545  and  _546
REMARK  225  A    between atoms: _545  and  _548
REMARK  226  A    between atoms: _548  and  _549
REMARK                            x       y       z     vdW  Elec       q    Type
REMARK                         _______ _______ _______ _____ _____    ______ ____
ROOT
ATOM      1  O   HOH     1     -24.648  -5.040   4.120  0.00  0.00    +0.000 OA
ENDROOT
TORSDOF 0
REMARK  Name = ../refined-set-2016/2rkf/2rkf_pocket.pdb
REMARK  226 active torsions:
REMARK  status: ('A' for Active; 'I' for Inactive)
REMARK    1  A    between atoms: _1  and  _3
REMARK    2  A    between atoms: _3  and  _4
REMARK    3  A    between atoms: _3  and  _6
REMARK    4  A    between atoms: _6  and  _7
REMARK    5  A    between atoms: _7  and  _8
REMARK    6  A    between atoms: _8  and  _9
REMARK    7  A    between atoms: _18  and  _20
REMARK    8  A    between atoms: _20  and  _21
REMARK    9  A    between atoms: _20  and  _23
REMARK   10  A    between atoms: _23  and  _24
REMARK   11  A    between atoms: _30  and  _32
REMARK   12  A    between atoms: _32  and  _33
REMARK   13  A    between atoms: _32  and  _35
REMARK   14  A    between atoms: _35  and  _36
REMARK   15  A    between atoms: _39  and  _41
REMARK   16  A    between atoms: _41  and  _42
REMARK   17  A    between atoms: _41  and  _44
REMARK   18  A    between atoms: _44  and  _45
REMARK   19  A    between atoms: _48  and  _50
REMARK   20  A    between atoms: _50  and  _51
REMARK   21  A    between atoms: _50  and  _53
REMARK   22  A    between atoms: _53  and  _54
REMARK   23  A    between atoms: _57  and  _59
REMARK   24  A    between atoms: _59  and  _60
REMARK   25  A    between atoms: _59  and  _62
REMARK   26  A    between atoms: _62  and  _63
REMARK   27  A    between atoms: _66  and  _68
REMARK   28  A    between atoms: _68  and  _69
REMARK   29  A    between atoms: _71  and  _73
REMARK   30  A    between atoms: _73  and  _74
REMARK   31  A    between atoms: _77  and  _79
REMARK   32  A    between atoms: _79  and  _80
REMARK   33  A    between atoms: _79  and  _82
REMARK   34  A    between atoms: _82  and  _83
REMARK   35  A    between atoms: _86  and  _88
REMARK   36  A    between atoms: _88  and  _89
REMARK   37  A    between atoms: _88  and  _91
REMARK   38  A    between atoms: _91  and  _92
REMARK   39  A    between atoms: _95  and  _97
REMARK   40  A    between atoms: _97  and  _98
REMARK   41  A    between atoms: _97  and  _100
REMARK   42  A    between atoms: _100  and  _101
REMARK   43  A    between atoms: _104  and  _106
REMARK   44  A    between atoms: _106  and  _107
REMARK   45  A    between atoms: _106  and  _109
REMARK   46  A    between atoms: _109  and  _110
REMARK   47  A    between atoms: _113  and  _115
REMARK   48  A    between atoms: _115  and  _116
REMARK   49  A    between atoms: _115  and  _118
REMARK   50  A    between atoms: _118  and  _119
REMARK   51  A    between atoms: _122  and  _124
REMARK   52  A    between atoms: _124  and  _125
REMARK   53  A    between atoms: _124  and  _127
REMARK   54  A    between atoms: _127  and  _128
REMARK   55  A    between atoms: _128  and  _129
REMARK   56  A    between atoms: _129  and  _130
REMARK   57  A    between atoms: _130  and  _131
REMARK   58  A    between atoms: _135  and  _137
REMARK   59  A    between atoms: _137  and  _138
REMARK   60  A    between atoms: _137  and  _140
REMARK   61  A    between atoms: _143  and  _145
REMARK   62  A    between atoms: _145  and  _146
REMARK   63  A    between atoms: _145  and  _148
REMARK   64  A    between atoms: _151  and  _153
REMARK   65  A    between atoms: _153  and  _154
REMARK   66  A    between atoms: _156  and  _158
REMARK   67  A    between atoms: _158  and  _159
REMARK   68  A    between atoms: _161  and  _163
REMARK   69  A    between atoms: _163  and  _164
REMARK   70  A    between atoms: _163  and  _166
REMARK   71  A    between atoms: _166  and  _167
REMARK   72  A    between atoms: _170  and  _172
REMARK   73  A    between atoms: _172  and  _173
REMARK   74  A    between atoms: _175  and  _177
REMARK   75  A    between atoms: _177  and  _178
REMARK   76  A    between atoms: _180  and  _182
REMARK   77  A    between atoms: _182  and  _183
REMARK   78  A    between atoms: _182  and  _185
REMARK   79  A    between atoms: _185  and  _186
REMARK   80  A    between atoms: _186  and  _187
REMARK   81  A    between atoms: _189  and  _191
REMARK   82  A    between atoms: _191  and  _192
REMARK   83  A    between atoms: _191  and  _194
REMARK   84  A    between atoms: _194  and  _195
REMARK   85  A    between atoms: _198  and  _200
REMARK   86  A    between atoms: _200  and  _201
REMARK   87  A    between atoms: _200  and  _203
REMARK   88  A    between atoms: _203  and  _204
REMARK   89  A    between atoms: _208  and  _209
REMARK   90  A    between atoms: _214  and  _216
REMARK   91  A    between atoms: _216  and  _217
REMARK   92  A    between atoms: _220  and  _222
REMARK   93  A    between atoms: _222  and  _223
REMARK   94  A    between atoms: _222  and  _225
REMARK   95  A    between atoms: _225  and  _226
REMARK   96  A    between atoms: _231  and  _233
REMARK   97  A    between atoms: _233  and  _234
REMARK   98  A    between atoms: _233  and  _236
REMARK   99  A    between atoms: _236  and  _237
REMARK  100  A    between atoms: _240  and  _242
REMARK  101  A    between atoms: _242  and  _243
REMARK  102  A    between atoms: _242  and  _245
REMARK  103  A    between atoms: _245  and  _246
REMARK  104  A    between atoms: _249  and  _251
REMARK  105  A    between atoms: _251  and  _252
REMARK  106  A    between atoms: _254  and  _256
REMARK  107  A    between atoms: _256  and  _257
REMARK  108  A    between atoms: _256  and  _259
REMARK  109  A    between atoms: _259  and  _260
REMARK  110  A    between atoms: _260  and  _261
REMARK  111  A    between atoms: _261  and  _262
REMARK  112  A    between atoms: _271  and  _273
REMARK  113  A    between atoms: _273  and  _274
REMARK  114  A    between atoms: _273  and  _276
REMARK  115  A    between atoms: _276  and  _277
REMARK  116  A    between atoms: _282  and  _284
REMARK  117  A    between atoms: _284  and  _285
REMARK  118  A    between atoms: _284  and  _287
REMARK  119  A    between atoms: _287  and  _288
REMARK  120  A    between atoms: _288  and  _289
REMARK  121  A    between atoms: _289  and  _290
REMARK  122  A    between atoms: _299  and  _301
REMARK  123  A    between atoms: _301  and  _302
REMARK  124  A    between atoms: _301  and  _304
REMARK  125  A    between atoms: _304  and  _305
REMARK  126  A    between atoms: _311  and  _313
REMARK  127  A    between atoms: _313  and  _314
REMARK  128  A    between atoms: _313  and  _316
REMARK  129  A    between atoms: _316  and  _317
REMARK  130  A    between atoms: _320  and  _322
REMARK  131  A    between atoms: _322  and  _323
REMARK  132  A    between atoms: _322  and  _325
REMARK  133  A    between atoms: _325  and  _326
REMARK  134  A    between atoms: _329  and  _331
REMARK  135  A    between atoms: _331  and  _332
REMARK  136  A    between atoms: _331  and  _334
REMARK  137  A    between atoms: _334  and  _335
REMARK  138  A    between atoms: _338  and  _340
REMARK  139  A    between atoms: _340  and  _341
REMARK  140  A    between atoms: _340  and  _343
REMARK  141  A    between atoms: _343  and  _344
REMARK  142  A    between atoms: _347  and  _349
REMARK  143  A    between atoms: _349  and  _350
REMARK  144  A    between atoms: _352  and  _354
REMARK  145  A    between atoms: _354  and  _355
REMARK  146  A    between atoms: _358  and  _360
REMARK  147  A    between atoms: _360  and  _361
REMARK  148  A    between atoms: _360  and  _363
REMARK  149  A    between atoms: _363  and  _364
REMARK  150  A    between atoms: _367  and  _369
REMARK  151  A    between atoms: _369  and  _370
REMARK  152  A    between atoms: _369  and  _372
REMARK  153  A    between atoms: _372  and  _373
REMARK  154  A    between atoms: _376  and  _378
REMARK  155  A    between atoms: _378  and  _379
REMARK  156  A    between atoms: _378  and  _381
REMARK  157  A    between atoms: _381  and  _382
REMARK  158  A    between atoms: _385  and  _387
REMARK  159  A    between atoms: _387  and  _388
REMARK  160  A    between atoms: _387  and  _390
REMARK  161  A    between atoms: _390  and  _391
REMARK  162  A    between atoms: _394  and  _396
REMARK  163  A    between atoms: _396  and  _397
REMARK  164  A    between atoms: _396  and  _399
REMARK  165  A    between atoms: _399  and  _400
REMARK  166  A    between atoms: _400  and  _401
REMARK  167  A    between atoms: _401  and  _402
REMARK  168  A    between atoms: _402  and  _403
REMARK  169  A    between atoms: _407  and  _409
REMARK  170  A    between atoms: _409  and  _410
REMARK  171  A    between atoms: _409  and  _412
REMARK  172  A    between atoms: _415  and  _417
REMARK  173  A    between atoms: _417  and  _418
REMARK  174  A    between atoms: _417  and  _420
REMARK  175  A    between atoms: _423  and  _425
REMARK  176  A    between atoms: _425  and  _426
REMARK  177  A    between atoms: _428  and  _430
REMARK  178  A    between atoms: _430  and  _431
REMARK  179  A    between atoms: _433  and  _435
REMARK  180  A    between atoms: _435  and  _436
REMARK  181  A    between atoms: _435  and  _438
REMARK  182  A    between atoms: _438  and  _439
REMARK  183  A    between atoms: _442  and  _444
REMARK  184  A    between atoms: _444  and  _445
REMARK  185  A    between atoms: _447  and  _449
REMARK  186  A    between atoms: _449  and  _450
REMARK  187  A    between atoms: _452  and  _454
REMARK  188  A    between atoms: _454  and  _455
REMARK  189  A    between atoms: _454  and  _457
REMARK  190  A    between atoms: _457  and  _458
REMARK  191  A    between atoms: _458  and  _459
REMARK  192  A    between atoms: _461  and  _463
REMARK  193  A    between atoms: _463  and  _464
REMARK  194  A    between atoms: _463  and  _466
REMARK  195  A    between atoms: _466  and  _467
REMARK  196  A    between atoms: _470  and  _472
REMARK  197  A    between atoms: _472  and  _473
REMARK  198  A    between atoms: _472  and  _475
REMARK  199  A    between atoms: _475  and  _476
REMARK  200  A    between atoms: _480  and  _481
REMARK  201  A    between atoms: _486  and  _488
REMARK  202  A    between atoms: _488  and  _489
REMARK  203  A    between atoms: _492  and  _494
REMARK  204  A    between atoms: _494  and  _495
REMARK  205  A    between atoms: _494  and  _497
REMARK  206  A    between atoms: _497  and  _498
REMARK  207  A    between atoms: _503  and  _505
REMARK  208  A    between atoms: _505  and  _506
REMARK  209  A    between atoms: _505  and  _508
REMARK  210  A    between atoms: _508  and  _509
REMARK  211  A    between atoms: _512  and  _514
REMARK  212  A    between atoms: _514  and  _515
REMARK  213  A    between atoms: _514  and  _517
REMARK  214  A    between atoms: _517  and  _518
REMARK  215  A    between atoms: _521  and  _523
REMARK  216  A    between atoms: _523  and  _524
REMARK  217  A    between atoms: _526  and  _528
REMARK  218  A    between atoms: _528  and  _529
REMARK  219  A    between atoms: _528  and  _531
REMARK  220  A    between atoms: _531  and  _532
REMARK  221  A    between atoms: _532  and  _533
REMARK  222  A    between atoms: _533  and  _534
REMARK  223  A    between atoms: _543  and  _545
REMARK  224  A    between atoms: _545  and  _546
REMARK  225  A    between atoms: _545  and  _548
REMARK  226  A    between atoms: _548  and  _549
REMARK                            x       y       z     vdW  Elec       q    Type
REMARK                         _______ _______ _______ _____ _____    ______ ____
ROOT
ATOM      1  O   HOH     1     -20.849   2.085  12.742  0.00  0.00    +0.000 OA
ENDROOT
TORSDOF 0
REMARK  Name = ../refined-set-2016/2rkf/2rkf_pocket.pdb
REMARK  226 active torsions:
REMARK  status: ('A' for Active; 'I' for Inactive)
REMARK    1  A    between atoms: _1  and  _3
REMARK    2  A    between atoms: _3  and  _4
REMARK    3  A    between atoms: _3  and  _6
REMARK    4  A    between atoms: _6  and  _7
REMARK    5  A    between atoms: _7  and  _8
REMARK    6  A    between atoms: _8  and  _9
REMARK    7  A    between atoms: _18  and  _20
REMARK    8  A    between atoms: _20  and  _21
REMARK    9  A    between atoms: _20  and  _23
REMARK   10  A    between atoms: _23  and  _24
REMARK   11  A    between atoms: _30  and  _32
REMARK   12  A    between atoms: _32  and  _33
REMARK   13  A    between atoms: _32  and  _35
REMARK   14  A    between atoms: _35  and  _36
REMARK   15  A    between atoms: _39  and  _41
REMARK   16  A    between atoms: _41  and  _42
REMARK   17  A    between atoms: _41  and  _44
REMARK   18  A    between atoms: _44  and  _45
REMARK   19  A    between atoms: _48  and  _50
REMARK   20  A    between atoms: _50  and  _51
REMARK   21  A    between atoms: _50  and  _53
REMARK   22  A    between atoms: _53  and  _54
REMARK   23  A    between atoms: _57  and  _59
REMARK   24  A    between atoms: _59  and  _60
REMARK   25  A    between atoms: _59  and  _62
REMARK   26  A    between atoms: _62  and  _63
REMARK   27  A    between atoms: _66  and  _68
REMARK   28  A    between atoms: _68  and  _69
REMARK   29  A    between atoms: _71  and  _73
REMARK   30  A    between atoms: _73  and  _74
REMARK   31  A    between atoms: _77  and  _79
REMARK   32  A    between atoms: _79  and  _80
REMARK   33  A    between atoms: _79  and  _82
REMARK   34  A    between atoms: _82  and  _83
REMARK   35  A    between atoms: _86  and  _88
REMARK   36  A    between atoms: _88  and  _89
REMARK   37  A    between atoms: _88  and  _91
REMARK   38  A    between atoms: _91  and  _92
REMARK   39  A    between atoms: _95  and  _97
REMARK   40  A    between atoms: _97  and  _98
REMARK   41  A    between atoms: _97  and  _100
REMARK   42  A    between atoms: _100  and  _101
REMARK   43  A    between atoms: _104  and  _106
REMARK   44  A    between atoms: _106  and  _107
REMARK   45  A    between atoms: _106  and  _109
REMARK   46  A    between atoms: _109  and  _110
REMARK   47  A    between atoms: _113  and  _115
REMARK   48  A    between atoms: _115  and  _116
REMARK   49  A    between atoms: _115  and  _118
REMARK   50  A    between atoms: _118  and  _119
REMARK   51  A    between atoms: _122  and  _124
REMARK   52  A    between atoms: _124  and  _125
REMARK   53  A    between atoms: _124  and  _127
REMARK   54  A    between atoms: _127  and  _128
REMARK   55  A    between atoms: _128  and  _129
REMARK   56  A    between atoms: _129  and  _130
REMARK   57  A    between atoms: _130  and  _131
REMARK   58  A    between atoms: _135  and  _137
REMARK   59  A    between atoms: _137  and  _138
REMARK   60  A    between atoms: _137  and  _140
REMARK   61  A    between atoms: _143  and  _145
REMARK   62  A    between atoms: _145  and  _146
REMARK   63  A    between atoms: _145  and  _148
REMARK   64  A    between atoms: _151  and  _153
REMARK   65  A    between atoms: _153  and  _154
REMARK   66  A    between atoms: _156  and  _158
REMARK   67  A    between atoms: _158  and  _159
REMARK   68  A    between atoms: _161  and  _163
REMARK   69  A    between atoms: _163  and  _164
REMARK   70  A    between atoms: _163  and  _166
REMARK   71  A    between atoms: _166  and  _167
REMARK   72  A    between atoms: _170  and  _172
REMARK   73  A    between atoms: _172  and  _173
REMARK   74  A    between atoms: _175  and  _177
REMARK   75  A    between atoms: _177  and  _178
REMARK   76  A    between atoms: _180  and  _182
REMARK   77  A    between atoms: _182  and  _183
REMARK   78  A    between atoms: _182  and  _185
REMARK   79  A    between atoms: _185  and  _186
REMARK   80  A    between atoms: _186  and  _187
REMARK   81  A    between atoms: _189  and  _191
REMARK   82  A    between atoms: _191  and  _192
REMARK   83  A    between atoms: _191  and  _194
REMARK   84  A    between atoms: _194  and  _195
REMARK   85  A    between atoms: _198  and  _200
REMARK   86  A    between atoms: _200  and  _201
REMARK   87  A    between atoms: _200  and  _203
REMARK   88  A    between atoms: _203  and  _204
REMARK   89  A    between atoms: _208  and  _209
REMARK   90  A    between atoms: _214  and  _216
REMARK   91  A    between atoms: _216  and  _217
REMARK   92  A    between atoms: _220  and  _222
REMARK   93  A    between atoms: _222  and  _223
REMARK   94  A    between atoms: _222  and  _225
REMARK   95  A    between atoms: _225  and  _226
REMARK   96  A    between atoms: _231  and  _233
REMARK   97  A    between atoms: _233  and  _234
REMARK   98  A    between atoms: _233  and  _236
REMARK   99  A    between atoms: _236  and  _237
REMARK  100  A    between atoms: _240  and  _242
REMARK  101  A    between atoms: _242  and  _243
REMARK  102  A    between atoms: _242  and  _245
REMARK  103  A    between atoms: _245  and  _246
REMARK  104  A    between atoms: _249  and  _251
REMARK  105  A    between atoms: _251  and  _252
REMARK  106  A    between atoms: _254  and  _256
REMARK  107  A    between atoms: _256  and  _257
REMARK  108  A    between atoms: _256  and  _259
REMARK  109  A    between atoms: _259  and  _260
REMARK  110  A    between atoms: _260  and  _261
REMARK  111  A    between atoms: _261  and  _262
REMARK  112  A    between atoms: _271  and  _273
REMARK  113  A    between atoms: _273  and  _274
REMARK  114  A    between atoms: _273  and  _276
REMARK  115  A    between atoms: _276  and  _277
REMARK  116  A    between atoms: _282  and  _284
REMARK  117  A    between atoms: _284  and  _285
REMARK  118  A    between atoms: _284  and  _287
REMARK  119  A    between atoms: _287  and  _288
REMARK  120  A    between atoms: _288  and  _289
REMARK  121  A    between atoms: _289  and  _290
REMARK  122  A    between atoms: _299  and  _301
REMARK  123  A    between atoms: _301  and  _302
REMARK  124  A    between atoms: _301  and  _304
REMARK  125  A    between atoms: _304  and  _305
REMARK  126  A    between atoms: _311  and  _313
REMARK  127  A    between atoms: _313  and  _314
REMARK  128  A    between atoms: _313  and  _316
REMARK  129  A    between atoms: _316  and  _317
REMARK  130  A    between atoms: _320  and  _322
REMARK  131  A    between atoms: _322  and  _323
REMARK  132  A    between atoms: _322  and  _325
REMARK  133  A    between atoms: _325  and  _326
REMARK  134  A    between atoms: _329  and  _331
REMARK  135  A    between atoms: _331  and  _332
REMARK  136  A    between atoms: _331  and  _334
REMARK  137  A    between atoms: _334  and  _335
REMARK  138  A    between atoms: _338  and  _340
REMARK  139  A    between atoms: _340  and  _341
REMARK  140  A    between atoms: _340  and  _343
REMARK  141  A    between atoms: _343  and  _344
REMARK  142  A    between atoms: _347  and  _349
REMARK  143  A    between atoms: _349  and  _350
REMARK  144  A    between atoms: _352  and  _354
REMARK  145  A    between atoms: _354  and  _355
REMARK  146  A    between atoms: _358  and  _360
REMARK  147  A    between atoms: _360  and  _361
REMARK  148  A    between atoms: _360  and  _363
REMARK  149  A    between atoms: _363  and  _364
REMARK  150  A    between atoms: _367  and  _369
REMARK  151  A    between atoms: _369  and  _370
REMARK  152  A    between atoms: _369  and  _372
REMARK  153  A    between atoms: _372  and  _373
REMARK  154  A    between atoms: _376  and  _378
REMARK  155  A    between atoms: _378  and  _379
REMARK  156  A    between atoms: _378  and  _381
REMARK  157  A    between atoms: _381  and  _382
REMARK  158  A    between atoms: _385  and  _387
REMARK  159  A    between atoms: _387  and  _388
REMARK  160  A    between atoms: _387  and  _390
REMARK  161  A    between atoms: _390  and  _391
REMARK  162  A    between atoms: _394  and  _396
REMARK  163  A    between atoms: _396  and  _397
REMARK  164  A    between atoms: _396  and  _399
REMARK  165  A    between atoms: _399  and  _400
REMARK  166  A    between atoms: _400  and  _401
REMARK  167  A    between atoms: _401  and  _402
REMARK  168  A    between atoms: _402  and  _403
REMARK  169  A    between atoms: _407  and  _409
REMARK  170  A    between atoms: _409  and  _410
REMARK  171  A    between atoms: _409  and  _412
REMARK  172  A    between atoms: _415  and  _417
REMARK  173  A    between atoms: _417  and  _418
REMARK  174  A    between atoms: _417  and  _420
REMARK  175  A    between atoms: _423  and  _425
REMARK  176  A    between atoms: _425  and  _426
REMARK  177  A    between atoms: _428  and  _430
REMARK  178  A    between atoms: _430  and  _431
REMARK  179  A    between atoms: _433  and  _435
REMARK  180  A    between atoms: _435  and  _436
REMARK  181  A    between atoms: _435  and  _438
REMARK  182  A    between atoms: _438  and  _439
REMARK  183  A    between atoms: _442  and  _444
REMARK  184  A    between atoms: _444  and  _445
REMARK  185  A    between atoms: _447  and  _449
REMARK  186  A    between atoms: _449  and  _450
REMARK  187  A    between atoms: _452  and  _454
REMARK  188  A    between atoms: _454  and  _455
REMARK  189  A    between atoms: _454  and  _457
REMARK  190  A    between atoms: _457  and  _458
REMARK  191  A    between atoms: _458  and  _459
REMARK  192  A    between atoms: _461  and  _463
REMARK  193  A    between atoms: _463  and  _464
REMARK  194  A    between atoms: _463  and  _466
REMARK  195  A    between atoms: _466  and  _467
REMARK  196  A    between atoms: _470  and  _472
REMARK  197  A    between atoms: _472  and  _473
REMARK  198  A    between atoms: _472  and  _475
REMARK  199  A    between atoms: _475  and  _476
REMARK  200  A    between atoms: _480  and  _481
REMARK  201  A    between atoms: _486  and  _488
REMARK  202  A    between atoms: _488  and  _489
REMARK  203  A    between atoms: _492  and  _494
REMARK  204  A    between atoms: _494  and  _495
REMARK  205  A    between atoms: _494  and  _497
REMARK  206  A    between atoms: _497  and  _498
REMARK  207  A    between atoms: _503  and  _505
REMARK  208  A    between atoms: _505  and  _506
REMARK  209  A    between atoms: _505  and  _508
REMARK  210  A    between atoms: _508  and  _509
REMARK  211  A    between atoms: _512  and  _514
REMARK  212  A    between atoms: _514  and  _515
REMARK  213  A    between atoms: _514  and  _517
REMARK  214  A    between atoms: _517  and  _518
REMARK  215  A    between atoms: _521  and  _523
REMARK  216  A    between atoms: _523  and  _524
REMARK  217  A    between atoms: _526  and  _528
REMARK  218  A    between atoms: _528  and  _529
REMARK  219  A    between atoms: _528  and  _531
REMARK  220  A    between atoms: _531  and  _532
REMARK  221  A    between atoms: _532  and  _533
REMARK  222  A    between atoms: _533  and  _534
REMARK  223  A    between atoms: _543  and  _545
REMARK  224  A    between atoms: _545  and  _546
REMARK  225  A    between atoms: _545  and  _548
REMARK  226  A    between atoms: _548  and  _549
REMARK                            x       y       z     vdW  Elec       q    Type
REMARK                         _______ _______ _______ _____ _____    ______ ____
ROOT
ATOM      1  O   HOH     1     -18.913  -1.431  14.876  0.00  0.00    +0.000 OA
ENDROOT
TORSDOF 0
REMARK  Name = ../refined-set-2016/2rkf/2rkf_pocket.pdb
REMARK  226 active torsions:
REMARK  status: ('A' for Active; 'I' for Inactive)
REMARK    1  A    between atoms: _1  and  _3
REMARK    2  A    between atoms: _3  and  _4
REMARK    3  A    between atoms: _3  and  _6
REMARK    4  A    between atoms: _6  and  _7
REMARK    5  A    between atoms: _7  and  _8
REMARK    6  A    between atoms: _8  and  _9
REMARK    7  A    between atoms: _18  and  _20
REMARK    8  A    between atoms: _20  and  _21
REMARK    9  A    between atoms: _20  and  _23
REMARK   10  A    between atoms: _23  and  _24
REMARK   11  A    between atoms: _30  and  _32
REMARK   12  A    between atoms: _32  and  _33
REMARK   13  A    between atoms: _32  and  _35
REMARK   14  A    between atoms: _35  and  _36
REMARK   15  A    between atoms: _39  and  _41
REMARK   16  A    between atoms: _41  and  _42
REMARK   17  A    between atoms: _41  and  _44
REMARK   18  A    between atoms: _44  and  _45
REMARK   19  A    between atoms: _48  and  _50
REMARK   20  A    between atoms: _50  and  _51
REMARK   21  A    between atoms: _50  and  _53
REMARK   22  A    between atoms: _53  and  _54
REMARK   23  A    between atoms: _57  and  _59
REMARK   24  A    between atoms: _59  and  _60
REMARK   25  A    between atoms: _59  and  _62
REMARK   26  A    between atoms: _62  and  _63
REMARK   27  A    between atoms: _66  and  _68
REMARK   28  A    between atoms: _68  and  _69
REMARK   29  A    between atoms: _71  and  _73
REMARK   30  A    between atoms: _73  and  _74
REMARK   31  A    between atoms: _77  and  _79
REMARK   32  A    between atoms: _79  and  _80
REMARK   33  A    between atoms: _79  and  _82
REMARK   34  A    between atoms: _82  and  _83
REMARK   35  A    between atoms: _86  and  _88
REMARK   36  A    between atoms: _88  and  _89
REMARK   37  A    between atoms: _88  and  _91
REMARK   38  A    between atoms: _91  and  _92
REMARK   39  A    between atoms: _95  and  _97
REMARK   40  A    between atoms: _97  and  _98
REMARK   41  A    between atoms: _97  and  _100
REMARK   42  A    between atoms: _100  and  _101
REMARK   43  A    between atoms: _104  and  _106
REMARK   44  A    between atoms: _106  and  _107
REMARK   45  A    between atoms: _106  and  _109
REMARK   46  A    between atoms: _109  and  _110
REMARK   47  A    between atoms: _113  and  _115
REMARK   48  A    between atoms: _115  and  _116
REMARK   49  A    between atoms: _115  and  _118
REMARK   50  A    between atoms: _118  and  _119
REMARK   51  A    between atoms: _122  and  _124
REMARK   52  A    between atoms: _124  and  _125
REMARK   53  A    between atoms: _124  and  _127
REMARK   54  A    between atoms: _127  and  _128
REMARK   55  A    between atoms: _128  and  _129
REMARK   56  A    between atoms: _129  and  _130
REMARK   57  A    between atoms: _130  and  _131
REMARK   58  A    between atoms: _135  and  _137
REMARK   59  A    between atoms: _137  and  _138
REMARK   60  A    between atoms: _137  and  _140
REMARK   61  A    between atoms: _143  and  _145
REMARK   62  A    between atoms: _145  and  _146
REMARK   63  A    between atoms: _145  and  _148
REMARK   64  A    between atoms: _151  and  _153
REMARK   65  A    between atoms: _153  and  _154
REMARK   66  A    between atoms: _156  and  _158
REMARK   67  A    between atoms: _158  and  _159
REMARK   68  A    between atoms: _161  and  _163
REMARK   69  A    between atoms: _163  and  _164
REMARK   70  A    between atoms: _163  and  _166
REMARK   71  A    between atoms: _166  and  _167
REMARK   72  A    between atoms: _170  and  _172
REMARK   73  A    between atoms: _172  and  _173
REMARK   74  A    between atoms: _175  and  _177
REMARK   75  A    between atoms: _177  and  _178
REMARK   76  A    between atoms: _180  and  _182
REMARK   77  A    between atoms: _182  and  _183
REMARK   78  A    between atoms: _182  and  _185
REMARK   79  A    between atoms: _185  and  _186
REMARK   80  A    between atoms: _186  and  _187
REMARK   81  A    between atoms: _189  and  _191
REMARK   82  A    between atoms: _191  and  _192
REMARK   83  A    between atoms: _191  and  _194
REMARK   84  A    between atoms: _194  and  _195
REMARK   85  A    between atoms: _198  and  _200
REMARK   86  A    between atoms: _200  and  _201
REMARK   87  A    between atoms: _200  and  _203
REMARK   88  A    between atoms: _203  and  _204
REMARK   89  A    between atoms: _208  and  _209
REMARK   90  A    between atoms: _214  and  _216
REMARK   91  A    between atoms: _216  and  _217
REMARK   92  A    between atoms: _220  and  _222
REMARK   93  A    between atoms: _222  and  _223
REMARK   94  A    between atoms: _222  and  _225
REMARK   95  A    between atoms: _225  and  _226
REMARK   96  A    between atoms: _231  and  _233
REMARK   97  A    between atoms: _233  and  _234
REMARK   98  A    between atoms: _233  and  _236
REMARK   99  A    between atoms: _236  and  _237
REMARK  100  A    between atoms: _240  and  _242
REMARK  101  A    between atoms: _242  and  _243
REMARK  102  A    between atoms: _242  and  _245
REMARK  103  A    between atoms: _245  and  _246
REMARK  104  A    between atoms: _249  and  _251
REMARK  105  A    between atoms: _251  and  _252
REMARK  106  A    between atoms: _254  and  _256
REMARK  107  A    between atoms: _256  and  _257
REMARK  108  A    between atoms: _256  and  _259
REMARK  109  A    between atoms: _259  and  _260
REMARK  110  A    between atoms: _260  and  _261
REMARK  111  A    between atoms: _261  and  _262
REMARK  112  A    between atoms: _271  and  _273
REMARK  113  A    between atoms: _273  and  _274
REMARK  114  A    between atoms: _273  and  _276
REMARK  115  A    between atoms: _276  and  _277
REMARK  116  A    between atoms: _282  and  _284
REMARK  117  A    between atoms: _284  and  _285
REMARK  118  A    between atoms: _284  and  _287
REMARK  119  A    between atoms: _287  and  _288
REMARK  120  A    between atoms: _288  and  _289
REMARK  121  A    between atoms: _289  and  _290
REMARK  122  A    between atoms: _299  and  _301
REMARK  123  A    between atoms: _301  and  _302
REMARK  124  A    between atoms: _301  and  _304
REMARK  125  A    between atoms: _304  and  _305
REMARK  126  A    between atoms: _311  and  _313
REMARK  127  A    between atoms: _313  and  _314
REMARK  128  A    between atoms: _313  and  _316
REMARK  129  A    between atoms: _316  and  _317
REMARK  130  A    between atoms: _320  and  _322
REMARK  131  A    between atoms: _322  and  _323
REMARK  132  A    between atoms: _322  and  _325
REMARK  133  A    between atoms: _325  and  _326
REMARK  134  A    between atoms: _329  and  _331
REMARK  135  A    between atoms: _331  and  _332
REMARK  136  A    between atoms: _331  and  _334
REMARK  137  A    between atoms: _334  and  _335
REMARK  138  A    between atoms: _338  and  _340
REMARK  139  A    between atoms: _340  and  _341
REMARK  140  A    between atoms: _340  and  _343
REMARK  141  A    between atoms: _343  and  _344
REMARK  142  A    between atoms: _347  and  _349
REMARK  143  A    between atoms: _349  and  _350
REMARK  144  A    between atoms: _352  and  _354
REMARK  145  A    between atoms: _354  and  _355
REMARK  146  A    between atoms: _358  and  _360
REMARK  147  A    between atoms: _360  and  _361
REMARK  148  A    between atoms: _360  and  _363
REMARK  149  A    between atoms: _363  and  _364
REMARK  150  A    between atoms: _367  and  _369
REMARK  151  A    between atoms: _369  and  _370
REMARK  152  A    between atoms: _369  and  _372
REMARK  153  A    between atoms: _372  and  _373
REMARK  154  A    between atoms: _376  and  _378
REMARK  155  A    between atoms: _378  and  _379
REMARK  156  A    between atoms: _378  and  _381
REMARK  157  A    between atoms: _381  and  _382
REMARK  158  A    between atoms: _385  and  _387
REMARK  159  A    between atoms: _387  and  _388
REMARK  160  A    between atoms: _387  and  _390
REMARK  161  A    between atoms: _390  and  _391
REMARK  162  A    between atoms: _394  and  _396
REMARK  163  A    between atoms: _396  and  _397
REMARK  164  A    between atoms: _396  and  _399
REMARK  165  A    between atoms: _399  and  _400
REMARK  166  A    between atoms: _400  and  _401
REMARK  167  A    between atoms: _401  and  _402
REMARK  168  A    between atoms: _402  and  _403
REMARK  169  A    between atoms: _407  and  _409
REMARK  170  A    between atoms: _409  and  _410
REMARK  171  A    between atoms: _409  and  _412
REMARK  172  A    between atoms: _415  and  _417
REMARK  173  A    between atoms: _417  and  _418
REMARK  174  A    between atoms: _417  and  _420
REMARK  175  A    between atoms: _423  and  _425
REMARK  176  A    between atoms: _425  and  _426
REMARK  177  A    between atoms: _428  and  _430
REMARK  178  A    between atoms: _430  and  _431
REMARK  179  A    between atoms: _433  and  _435
REMARK  180  A    between atoms: _435  and  _436
REMARK  181  A    between atoms: _435  and  _438
REMARK  182  A    between atoms: _438  and  _439
REMARK  183  A    between atoms: _442  and  _444
REMARK  184  A    between atoms: _444  and  _445
REMARK  185  A    between atoms: _447  and  _449
REMARK  186  A    between atoms: _449  and  _450
REMARK  187  A    between atoms: _452  and  _454
REMARK  188  A    between atoms: _454  and  _455
REMARK  189  A    between atoms: _454  and  _457
REMARK  190  A    between atoms: _457  and  _458
REMARK  191  A    between atoms: _458  and  _459
REMARK  192  A    between atoms: _461  and  _463
REMARK  193  A    between atoms: _463  and  _464
REMARK  194  A    between atoms: _463  and  _466
REMARK  195  A    between atoms: _466  and  _467
REMARK  196  A    between atoms: _470  and  _472
REMARK  197  A    between atoms: _472  and  _473
REMARK  198  A    between atoms: _472  and  _475
REMARK  199  A    between atoms: _475  and  _476
REMARK  200  A    between atoms: _480  and  _481
REMARK  201  A    between atoms: _486  and  _488
REMARK  202  A    between atoms: _488  and  _489
REMARK  203  A    between atoms: _492  and  _494
REMARK  204  A    between atoms: _494  and  _495
REMARK  205  A    between atoms: _494  and  _497
REMARK  206  A    between atoms: _497  and  _498
REMARK  207  A    between atoms: _503  and  _505
REMARK  208  A    between atoms: _505  and  _506
REMARK  209  A    between atoms: _505  and  _508
REMARK  210  A    between atoms: _508  and  _509
REMARK  211  A    between atoms: _512  and  _514
REMARK  212  A    between atoms: _514  and  _515
REMARK  213  A    between atoms: _514  and  _517
REMARK  214  A    between atoms: _517  and  _518
REMARK  215  A    between atoms: _521  and  _523
REMARK  216  A    between atoms: _523  and  _524
REMARK  217  A    between atoms: _526  and  _528
REMARK  218  A    between atoms: _528  and  _529
REMARK  219  A    between atoms: _528  and  _531
REMARK  220  A    between atoms: _531  and  _532
REMARK  221  A    between atoms: _532  and  _533
REMARK  222  A    between atoms: _533  and  _534
REMARK  223  A    between atoms: _543  and  _545
REMARK  224  A    between atoms: _545  and  _546
REMARK  225  A    between atoms: _545  and  _548
REMARK  226  A    between atoms: _548  and  _549
REMARK                            x       y       z     vdW  Elec       q    Type
REMARK                         _______ _______ _______ _____ _____    ______ ____
ROOT
ATOM      1  O   HOH     1     -19.413  12.235   1.528  0.00  0.00    +0.000 OA
ENDROOT
TORSDOF 0
REMARK  Name = ../refined-set-2016/2rkf/2rkf_pocket.pdb
REMARK  226 active torsions:
REMARK  status: ('A' for Active; 'I' for Inactive)
REMARK    1  A    between atoms: _1  and  _3
REMARK    2  A    between atoms: _3  and  _4
REMARK    3  A    between atoms: _3  and  _6
REMARK    4  A    between atoms: _6  and  _7
REMARK    5  A    between atoms: _7  and  _8
REMARK    6  A    between atoms: _8  and  _9
REMARK    7  A    between atoms: _18  and  _20
REMARK    8  A    between atoms: _20  and  _21
REMARK    9  A    between atoms: _20  and  _23
REMARK   10  A    between atoms: _23  and  _24
REMARK   11  A    between atoms: _30  and  _32
REMARK   12  A    between atoms: _32  and  _33
REMARK   13  A    between atoms: _32  and  _35
REMARK   14  A    between atoms: _35  and  _36
REMARK   15  A    between atoms: _39  and  _41
REMARK   16  A    between atoms: _41  and  _42
REMARK   17  A    between atoms: _41  and  _44
REMARK   18  A    between atoms: _44  and  _45
REMARK   19  A    between atoms: _48  and  _50
REMARK   20  A    between atoms: _50  and  _51
REMARK   21  A    between atoms: _50  and  _53
REMARK   22  A    between atoms: _53  and  _54
REMARK   23  A    between atoms: _57  and  _59
REMARK   24  A    between atoms: _59  and  _60
REMARK   25  A    between atoms: _59  and  _62
REMARK   26  A    between atoms: _62  and  _63
REMARK   27  A    between atoms: _66  and  _68
REMARK   28  A    between atoms: _68  and  _69
REMARK   29  A    between atoms: _71  and  _73
REMARK   30  A    between atoms: _73  and  _74
REMARK   31  A    between atoms: _77  and  _79
REMARK   32  A    between atoms: _79  and  _80
REMARK   33  A    between atoms: _79  and  _82
REMARK   34  A    between atoms: _82  and  _83
REMARK   35  A    between atoms: _86  and  _88
REMARK   36  A    between atoms: _88  and  _89
REMARK   37  A    between atoms: _88  and  _91
REMARK   38  A    between atoms: _91  and  _92
REMARK   39  A    between atoms: _95  and  _97
REMARK   40  A    between atoms: _97  and  _98
REMARK   41  A    between atoms: _97  and  _100
REMARK   42  A    between atoms: _100  and  _101
REMARK   43  A    between atoms: _104  and  _106
REMARK   44  A    between atoms: _106  and  _107
REMARK   45  A    between atoms: _106  and  _109
REMARK   46  A    between atoms: _109  and  _110
REMARK   47  A    between atoms: _113  and  _115
REMARK   48  A    between atoms: _115  and  _116
REMARK   49  A    between atoms: _115  and  _118
REMARK   50  A    between atoms: _118  and  _119
REMARK   51  A    between atoms: _122  and  _124
REMARK   52  A    between atoms: _124  and  _125
REMARK   53  A    between atoms: _124  and  _127
REMARK   54  A    between atoms: _127  and  _128
REMARK   55  A    between atoms: _128  and  _129
REMARK   56  A    between atoms: _129  and  _130
REMARK   57  A    between atoms: _130  and  _131
REMARK   58  A    between atoms: _135  and  _137
REMARK   59  A    between atoms: _137  and  _138
REMARK   60  A    between atoms: _137  and  _140
REMARK   61  A    between atoms: _143  and  _145
REMARK   62  A    between atoms: _145  and  _146
REMARK   63  A    between atoms: _145  and  _148
REMARK   64  A    between atoms: _151  and  _153
REMARK   65  A    between atoms: _153  and  _154
REMARK   66  A    between atoms: _156  and  _158
REMARK   67  A    between atoms: _158  and  _159
REMARK   68  A    between atoms: _161  and  _163
REMARK   69  A    between atoms: _163  and  _164
REMARK   70  A    between atoms: _163  and  _166
REMARK   71  A    between atoms: _166  and  _167
REMARK   72  A    between atoms: _170  and  _172
REMARK   73  A    between atoms: _172  and  _173
REMARK   74  A    between atoms: _175  and  _177
REMARK   75  A    between atoms: _177  and  _178
REMARK   76  A    between atoms: _180  and  _182
REMARK   77  A    between atoms: _182  and  _183
REMARK   78  A    between atoms: _182  and  _185
REMARK   79  A    between atoms: _185  and  _186
REMARK   80  A    between atoms: _186  and  _187
REMARK   81  A    between atoms: _189  and  _191
REMARK   82  A    between atoms: _191  and  _192
REMARK   83  A    between atoms: _191  and  _194
REMARK   84  A    between atoms: _194  and  _195
REMARK   85  A    between atoms: _198  and  _200
REMARK   86  A    between atoms: _200  and  _201
REMARK   87  A    between atoms: _200  and  _203
REMARK   88  A    between atoms: _203  and  _204
REMARK   89  A    between atoms: _208  and  _209
REMARK   90  A    between atoms: _214  and  _216
REMARK   91  A    between atoms: _216  and  _217
REMARK   92  A    between atoms: _220  and  _222
REMARK   93  A    between atoms: _222  and  _223
REMARK   94  A    between atoms: _222  and  _225
REMARK   95  A    between atoms: _225  and  _226
REMARK   96  A    between atoms: _231  and  _233
REMARK   97  A    between atoms: _233  and  _234
REMARK   98  A    between atoms: _233  and  _236
REMARK   99  A    between atoms: _236  and  _237
REMARK  100  A    between atoms: _240  and  _242
REMARK  101  A    between atoms: _242  and  _243
REMARK  102  A    between atoms: _242  and  _245
REMARK  103  A    between atoms: _245  and  _246
REMARK  104  A    between atoms: _249  and  _251
REMARK  105  A    between atoms: _251  and  _252
REMARK  106  A    between atoms: _254  and  _256
REMARK  107  A    between atoms: _256  and  _257
REMARK  108  A    between atoms: _256  and  _259
REMARK  109  A    between atoms: _259  and  _260
REMARK  110  A    between atoms: _260  and  _261
REMARK  111  A    between atoms: _261  and  _262
REMARK  112  A    between atoms: _271  and  _273
REMARK  113  A    between atoms: _273  and  _274
REMARK  114  A    between atoms: _273  and  _276
REMARK  115  A    between atoms: _276  and  _277
REMARK  116  A    between atoms: _282  and  _284
REMARK  117  A    between atoms: _284  and  _285
REMARK  118  A    between atoms: _284  and  _287
REMARK  119  A    between atoms: _287  and  _288
REMARK  120  A    between atoms: _288  and  _289
REMARK  121  A    between atoms: _289  and  _290
REMARK  122  A    between atoms: _299  and  _301
REMARK  123  A    between atoms: _301  and  _302
REMARK  124  A    between atoms: _301  and  _304
REMARK  125  A    between atoms: _304  and  _305
REMARK  126  A    between atoms: _311  and  _313
REMARK  127  A    between atoms: _313  and  _314
REMARK  128  A    between atoms: _313  and  _316
REMARK  129  A    between atoms: _316  and  _317
REMARK  130  A    between atoms: _320  and  _322
REMARK  131  A    between atoms: _322  and  _323
REMARK  132  A    between atoms: _322  and  _325
REMARK  133  A    between atoms: _325  and  _326
REMARK  134  A    between atoms: _329  and  _331
REMARK  135  A    between atoms: _331  and  _332
REMARK  136  A    between atoms: _331  and  _334
REMARK  137  A    between atoms: _334  and  _335
REMARK  138  A    between atoms: _338  and  _340
REMARK  139  A    between atoms: _340  and  _341
REMARK  140  A    between atoms: _340  and  _343
REMARK  141  A    between atoms: _343  and  _344
REMARK  142  A    between atoms: _347  and  _349
REMARK  143  A    between atoms: _349  and  _350
REMARK  144  A    between atoms: _352  and  _354
REMARK  145  A    between atoms: _354  and  _355
REMARK  146  A    between atoms: _358  and  _360
REMARK  147  A    between atoms: _360  and  _361
REMARK  148  A    between atoms: _360  and  _363
REMARK  149  A    between atoms: _363  and  _364
REMARK  150  A    between atoms: _367  and  _369
REMARK  151  A    between atoms: _369  and  _370
REMARK  152  A    between atoms: _369  and  _372
REMARK  153  A    between atoms: _372  and  _373
REMARK  154  A    between atoms: _376  and  _378
REMARK  155  A    between atoms: _378  and  _379
REMARK  156  A    between atoms: _378  and  _381
REMARK  157  A    between atoms: _381  and  _382
REMARK  158  A    between atoms: _385  and  _387
REMARK  159  A    between atoms: _387  and  _388
REMARK  160  A    between atoms: _387  and  _390
REMARK  161  A    between atoms: _390  and  _391
REMARK  162  A    between atoms: _394  and  _396
REMARK  163  A    between atoms: _396  and  _397
REMARK  164  A    between atoms: _396  and  _399
REMARK  165  A    between atoms: _399  and  _400
REMARK  166  A    between atoms: _400  and  _401
REMARK  167  A    between atoms: _401  and  _402
REMARK  168  A    between atoms: _402  and  _403
REMARK  169  A    between atoms: _407  and  _409
REMARK  170  A    between atoms: _409  and  _410
REMARK  171  A    between atoms: _409  and  _412
REMARK  172  A    between atoms: _415  and  _417
REMARK  173  A    between atoms: _417  and  _418
REMARK  174  A    between atoms: _417  and  _420
REMARK  175  A    between atoms: _423  and  _425
REMARK  176  A    between atoms: _425  and  _426
REMARK  177  A    between atoms: _428  and  _430
REMARK  178  A    between atoms: _430  and  _431
REMARK  179  A    between atoms: _433  and  _435
REMARK  180  A    between atoms: _435  and  _436
REMARK  181  A    between atoms: _435  and  _438
REMARK  182  A    between atoms: _438  and  _439
REMARK  183  A    between atoms: _442  and  _444
REMARK  184  A    between atoms: _444  and  _445
REMARK  185  A    between atoms: _447  and  _449
REMARK  186  A    between atoms: _449  and  _450
REMARK  187  A    between atoms: _452  and  _454
REMARK  188  A    between atoms: _454  and  _455
REMARK  189  A    between atoms: _454  and  _457
REMARK  190  A    between atoms: _457  and  _458
REMARK  191  A    between atoms: _458  and  _459
REMARK  192  A    between atoms: _461  and  _463
REMARK  193  A    between atoms: _463  and  _464
REMARK  194  A    between atoms: _463  and  _466
REMARK  195  A    between atoms: _466  and  _467
REMARK  196  A    between atoms: _470  and  _472
REMARK  197  A    between atoms: _472  and  _473
REMARK  198  A    between atoms: _472  and  _475
REMARK  199  A    between atoms: _475  and  _476
REMARK  200  A    between atoms: _480  and  _481
REMARK  201  A    between atoms: _486  and  _488
REMARK  202  A    between atoms: _488  and  _489
REMARK  203  A    between atoms: _492  and  _494
REMARK  204  A    between atoms: _494  and  _495
REMARK  205  A    between atoms: _494  and  _497
REMARK  206  A    between atoms: _497  and  _498
REMARK  207  A    between atoms: _503  and  _505
REMARK  208  A    between atoms: _505  and  _506
REMARK  209  A    between atoms: _505  and  _508
REMARK  210  A    between atoms: _508  and  _509
REMARK  211  A    between atoms: _512  and  _514
REMARK  212  A    between atoms: _514  and  _515
REMARK  213  A    between atoms: _514  and  _517
REMARK  214  A    between atoms: _517  and  _518
REMARK  215  A    between atoms: _521  and  _523
REMARK  216  A    between atoms: _523  and  _524
REMARK  217  A    between atoms: _526  and  _528
REMARK  218  A    between atoms: _528  and  _529
REMARK  219  A    between atoms: _528  and  _531
REMARK  220  A    between atoms: _531  and  _532
REMARK  221  A    between atoms: _532  and  _533
REMARK  222  A    between atoms: _533  and  _534
REMARK  223  A    between atoms: _543  and  _545
REMARK  224  A    between atoms: _545  and  _546
REMARK  225  A    between atoms: _545  and  _548
REMARK  226  A    between atoms: _548  and  _549
REMARK                            x       y       z     vdW  Elec       q    Type
REMARK                         _______ _______ _______ _____ _____    ______ ____
ROOT
ATOM      1  O   HOH     1     -23.244  -8.538   9.541  0.00  0.00    +0.000 OA
ENDROOT
TORSDOF 0
REMARK  Name = ../refined-set-2016/2rkf/2rkf_pocket.pdb
REMARK  226 active torsions:
REMARK  status: ('A' for Active; 'I' for Inactive)
REMARK    1  A    between atoms: _1  and  _3
REMARK    2  A    between atoms: _3  and  _4
REMARK    3  A    between atoms: _3  and  _6
REMARK    4  A    between atoms: _6  and  _7
REMARK    5  A    between atoms: _7  and  _8
REMARK    6  A    between atoms: _8  and  _9
REMARK    7  A    between atoms: _18  and  _20
REMARK    8  A    between atoms: _20  and  _21
REMARK    9  A    between atoms: _20  and  _23
REMARK   10  A    between atoms: _23  and  _24
REMARK   11  A    between atoms: _30  and  _32
REMARK   12  A    between atoms: _32  and  _33
REMARK   13  A    between atoms: _32  and  _35
REMARK   14  A    between atoms: _35  and  _36
REMARK   15  A    between atoms: _39  and  _41
REMARK   16  A    between atoms: _41  and  _42
REMARK   17  A    between atoms: _41  and  _44
REMARK   18  A    between atoms: _44  and  _45
REMARK   19  A    between atoms: _48  and  _50
REMARK   20  A    between atoms: _50  and  _51
REMARK   21  A    between atoms: _50  and  _53
REMARK   22  A    between atoms: _53  and  _54
REMARK   23  A    between atoms: _57  and  _59
REMARK   24  A    between atoms: _59  and  _60
REMARK   25  A    between atoms: _59  and  _62
REMARK   26  A    between atoms: _62  and  _63
REMARK   27  A    between atoms: _66  and  _68
REMARK   28  A    between atoms: _68  and  _69
REMARK   29  A    between atoms: _71  and  _73
REMARK   30  A    between atoms: _73  and  _74
REMARK   31  A    between atoms: _77  and  _79
REMARK   32  A    between atoms: _79  and  _80
REMARK   33  A    between atoms: _79  and  _82
REMARK   34  A    between atoms: _82  and  _83
REMARK   35  A    between atoms: _86  and  _88
REMARK   36  A    between atoms: _88  and  _89
REMARK   37  A    between atoms: _88  and  _91
REMARK   38  A    between atoms: _91  and  _92
REMARK   39  A    between atoms: _95  and  _97
REMARK   40  A    between atoms: _97  and  _98
REMARK   41  A    between atoms: _97  and  _100
REMARK   42  A    between atoms: _100  and  _101
REMARK   43  A    between atoms: _104  and  _106
REMARK   44  A    between atoms: _106  and  _107
REMARK   45  A    between atoms: _106  and  _109
REMARK   46  A    between atoms: _109  and  _110
REMARK   47  A    between atoms: _113  and  _115
REMARK   48  A    between atoms: _115  and  _116
REMARK   49  A    between atoms: _115  and  _118
REMARK   50  A    between atoms: _118  and  _119
REMARK   51  A    between atoms: _122  and  _124
REMARK   52  A    between atoms: _124  and  _125
REMARK   53  A    between atoms: _124  and  _127
REMARK   54  A    between atoms: _127  and  _128
REMARK   55  A    between atoms: _128  and  _129
REMARK   56  A    between atoms: _129  and  _130
REMARK   57  A    between atoms: _130  and  _131
REMARK   58  A    between atoms: _135  and  _137
REMARK   59  A    between atoms: _137  and  _138
REMARK   60  A    between atoms: _137  and  _140
REMARK   61  A    between atoms: _143  and  _145
REMARK   62  A    between atoms: _145  and  _146
REMARK   63  A    between atoms: _145  and  _148
REMARK   64  A    between atoms: _151  and  _153
REMARK   65  A    between atoms: _153  and  _154
REMARK   66  A    between atoms: _156  and  _158
REMARK   67  A    between atoms: _158  and  _159
REMARK   68  A    between atoms: _161  and  _163
REMARK   69  A    between atoms: _163  and  _164
REMARK   70  A    between atoms: _163  and  _166
REMARK   71  A    between atoms: _166  and  _167
REMARK   72  A    between atoms: _170  and  _172
REMARK   73  A    between atoms: _172  and  _173
REMARK   74  A    between atoms: _175  and  _177
REMARK   75  A    between atoms: _177  and  _178
REMARK   76  A    between atoms: _180  and  _182
REMARK   77  A    between atoms: _182  and  _183
REMARK   78  A    between atoms: _182  and  _185
REMARK   79  A    between atoms: _185  and  _186
REMARK   80  A    between atoms: _186  and  _187
REMARK   81  A    between atoms: _189  and  _191
REMARK   82  A    between atoms: _191  and  _192
REMARK   83  A    between atoms: _191  and  _194
REMARK   84  A    between atoms: _194  and  _195
REMARK   85  A    between atoms: _198  and  _200
REMARK   86  A    between atoms: _200  and  _201
REMARK   87  A    between atoms: _200  and  _203
REMARK   88  A    between atoms: _203  and  _204
REMARK   89  A    between atoms: _208  and  _209
REMARK   90  A    between atoms: _214  and  _216
REMARK   91  A    between atoms: _216  and  _217
REMARK   92  A    between atoms: _220  and  _222
REMARK   93  A    between atoms: _222  and  _223
REMARK   94  A    between atoms: _222  and  _225
REMARK   95  A    between atoms: _225  and  _226
REMARK   96  A    between atoms: _231  and  _233
REMARK   97  A    between atoms: _233  and  _234
REMARK   98  A    between atoms: _233  and  _236
REMARK   99  A    between atoms: _236  and  _237
REMARK  100  A    between atoms: _240  and  _242
REMARK  101  A    between atoms: _242  and  _243
REMARK  102  A    between atoms: _242  and  _245
REMARK  103  A    between atoms: _245  and  _246
REMARK  104  A    between atoms: _249  and  _251
REMARK  105  A    between atoms: _251  and  _252
REMARK  106  A    between atoms: _254  and  _256
REMARK  107  A    between atoms: _256  and  _257
REMARK  108  A    between atoms: _256  and  _259
REMARK  109  A    between atoms: _259  and  _260
REMARK  110  A    between atoms: _260  and  _261
REMARK  111  A    between atoms: _261  and  _262
REMARK  112  A    between atoms: _271  and  _273
REMARK  113  A    between atoms: _273  and  _274
REMARK  114  A    between atoms: _273  and  _276
REMARK  115  A    between atoms: _276  and  _277
REMARK  116  A    between atoms: _282  and  _284
REMARK  117  A    between atoms: _284  and  _285
REMARK  118  A    between atoms: _284  and  _287
REMARK  119  A    between atoms: _287  and  _288
REMARK  120  A    between atoms: _288  and  _289
REMARK  121  A    between atoms: _289  and  _290
REMARK  122  A    between atoms: _299  and  _301
REMARK  123  A    between atoms: _301  and  _302
REMARK  124  A    between atoms: _301  and  _304
REMARK  125  A    between atoms: _304  and  _305
REMARK  126  A    between atoms: _311  and  _313
REMARK  127  A    between atoms: _313  and  _314
REMARK  128  A    between atoms: _313  and  _316
REMARK  129  A    between atoms: _316  and  _317
REMARK  130  A    between atoms: _320  and  _322
REMARK  131  A    between atoms: _322  and  _323
REMARK  132  A    between atoms: _322  and  _325
REMARK  133  A    between atoms: _325  and  _326
REMARK  134  A    between atoms: _329  and  _331
REMARK  135  A    between atoms: _331  and  _332
REMARK  136  A    between atoms: _331  and  _334
REMARK  137  A    between atoms: _334  and  _335
REMARK  138  A    between atoms: _338  and  _340
REMARK  139  A    between atoms: _340  and  _341
REMARK  140  A    between atoms: _340  and  _343
REMARK  141  A    between atoms: _343  and  _344
REMARK  142  A    between atoms: _347  and  _349
REMARK  143  A    between atoms: _349  and  _350
REMARK  144  A    between atoms: _352  and  _354
REMARK  145  A    between atoms: _354  and  _355
REMARK  146  A    between atoms: _358  and  _360
REMARK  147  A    between atoms: _360  and  _361
REMARK  148  A    between atoms: _360  and  _363
REMARK  149  A    between atoms: _363  and  _364
REMARK  150  A    between atoms: _367  and  _369
REMARK  151  A    between atoms: _369  and  _370
REMARK  152  A    between atoms: _369  and  _372
REMARK  153  A    between atoms: _372  and  _373
REMARK  154  A    between atoms: _376  and  _378
REMARK  155  A    between atoms: _378  and  _379
REMARK  156  A    between atoms: _378  and  _381
REMARK  157  A    between atoms: _381  and  _382
REMARK  158  A    between atoms: _385  and  _387
REMARK  159  A    between atoms: _387  and  _388
REMARK  160  A    between atoms: _387  and  _390
REMARK  161  A    between atoms: _390  and  _391
REMARK  162  A    between atoms: _394  and  _396
REMARK  163  A    between atoms: _396  and  _397
REMARK  164  A    between atoms: _396  and  _399
REMARK  165  A    between atoms: _399  and  _400
REMARK  166  A    between atoms: _400  and  _401
REMARK  167  A    between atoms: _401  and  _402
REMARK  168  A    between atoms: _402  and  _403
REMARK  169  A    between atoms: _407  and  _409
REMARK  170  A    between atoms: _409  and  _410
REMARK  171  A    between atoms: _409  and  _412
REMARK  172  A    between atoms: _415  and  _417
REMARK  173  A    between atoms: _417  and  _418
REMARK  174  A    between atoms: _417  and  _420
REMARK  175  A    between atoms: _423  and  _425
REMARK  176  A    between atoms: _425  and  _426
REMARK  177  A    between atoms: _428  and  _430
REMARK  178  A    between atoms: _430  and  _431
REMARK  179  A    between atoms: _433  and  _435
REMARK  180  A    between atoms: _435  and  _436
REMARK  181  A    between atoms: _435  and  _438
REMARK  182  A    between atoms: _438  and  _439
REMARK  183  A    between atoms: _442  and  _444
REMARK  184  A    between atoms: _444  and  _445
REMARK  185  A    between atoms: _447  and  _449
REMARK  186  A    between atoms: _449  and  _450
REMARK  187  A    between atoms: _452  and  _454
REMARK  188  A    between atoms: _454  and  _455
REMARK  189  A    between atoms: _454  and  _457
REMARK  190  A    between atoms: _457  and  _458
REMARK  191  A    between atoms: _458  and  _459
REMARK  192  A    between atoms: _461  and  _463
REMARK  193  A    between atoms: _463  and  _464
REMARK  194  A    between atoms: _463  and  _466
REMARK  195  A    between atoms: _466  and  _467
REMARK  196  A    between atoms: _470  and  _472
REMARK  197  A    between atoms: _472  and  _473
REMARK  198  A    between atoms: _472  and  _475
REMARK  199  A    between atoms: _475  and  _476
REMARK  200  A    between atoms: _480  and  _481
REMARK  201  A    between atoms: _486  and  _488
REMARK  202  A    between atoms: _488  and  _489
REMARK  203  A    between atoms: _492  and  _494
REMARK  204  A    between atoms: _494  and  _495
REMARK  205  A    between atoms: _494  and  _497
REMARK  206  A    between atoms: _497  and  _498
REMARK  207  A    between atoms: _503  and  _505
REMARK  208  A    between atoms: _505  and  _506
REMARK  209  A    between atoms: _505  and  _508
REMARK  210  A    between atoms: _508  and  _509
REMARK  211  A    between atoms: _512  and  _514
REMARK  212  A    between atoms: _514  and  _515
REMARK  213  A    between atoms: _514  and  _517
REMARK  214  A    between atoms: _517  and  _518
REMARK  215  A    between atoms: _521  and  _523
REMARK  216  A    between atoms: _523  and  _524
REMARK  217  A    between atoms: _526  and  _528
REMARK  218  A    between atoms: _528  and  _529
REMARK  219  A    between atoms: _528  and  _531
REMARK  220  A    between atoms: _531  and  _532
REMARK  221  A    between atoms: _532  and  _533
REMARK  222  A    between atoms: _533  and  _534
REMARK  223  A    between atoms: _543  and  _545
REMARK  224  A    between atoms: _545  and  _546
REMARK  225  A    between atoms: _545  and  _548
REMARK  226  A    between atoms: _548  and  _549
REMARK                            x       y       z     vdW  Elec       q    Type
REMARK                         _______ _______ _______ _____ _____    ______ ____
ROOT
ATOM      1  O   HOH     1     -24.678   5.045  -4.710  0.00  0.00    +0.000 OA
ENDROOT
TORSDOF 0
REMARK  Name = ../refined-set-2016/2rkf/2rkf_pocket.pdb
REMARK  226 active torsions:
REMARK  status: ('A' for Active; 'I' for Inactive)
REMARK    1  A    between atoms: _1  and  _3
REMARK    2  A    between atoms: _3  and  _4
REMARK    3  A    between atoms: _3  and  _6
REMARK    4  A    between atoms: _6  and  _7
REMARK    5  A    between atoms: _7  and  _8
REMARK    6  A    between atoms: _8  and  _9
REMARK    7  A    between atoms: _18  and  _20
REMARK    8  A    between atoms: _20  and  _21
REMARK    9  A    between atoms: _20  and  _23
REMARK   10  A    between atoms: _23  and  _24
REMARK   11  A    between atoms: _30  and  _32
REMARK   12  A    between atoms: _32  and  _33
REMARK   13  A    between atoms: _32  and  _35
REMARK   14  A    between atoms: _35  and  _36
REMARK   15  A    between atoms: _39  and  _41
REMARK   16  A    between atoms: _41  and  _42
REMARK   17  A    between atoms: _41  and  _44
REMARK   18  A    between atoms: _44  and  _45
REMARK   19  A    between atoms: _48  and  _50
REMARK   20  A    between atoms: _50  and  _51
REMARK   21  A    between atoms: _50  and  _53
REMARK   22  A    between atoms: _53  and  _54
REMARK   23  A    between atoms: _57  and  _59
REMARK   24  A    between atoms: _59  and  _60
REMARK   25  A    between atoms: _59  and  _62
REMARK   26  A    between atoms: _62  and  _63
REMARK   27  A    between atoms: _66  and  _68
REMARK   28  A    between atoms: _68  and  _69
REMARK   29  A    between atoms: _71  and  _73
REMARK   30  A    between atoms: _73  and  _74
REMARK   31  A    between atoms: _77  and  _79
REMARK   32  A    between atoms: _79  and  _80
REMARK   33  A    between atoms: _79  and  _82
REMARK   34  A    between atoms: _82  and  _83
REMARK   35  A    between atoms: _86  and  _88
REMARK   36  A    between atoms: _88  and  _89
REMARK   37  A    between atoms: _88  and  _91
REMARK   38  A    between atoms: _91  and  _92
REMARK   39  A    between atoms: _95  and  _97
REMARK   40  A    between atoms: _97  and  _98
REMARK   41  A    between atoms: _97  and  _100
REMARK   42  A    between atoms: _100  and  _101
REMARK   43  A    between atoms: _104  and  _106
REMARK   44  A    between atoms: _106  and  _107
REMARK   45  A    between atoms: _106  and  _109
REMARK   46  A    between atoms: _109  and  _110
REMARK   47  A    between atoms: _113  and  _115
REMARK   48  A    between atoms: _115  and  _116
REMARK   49  A    between atoms: _115  and  _118
REMARK   50  A    between atoms: _118  and  _119
REMARK   51  A    between atoms: _122  and  _124
REMARK   52  A    between atoms: _124  and  _125
REMARK   53  A    between atoms: _124  and  _127
REMARK   54  A    between atoms: _127  and  _128
REMARK   55  A    between atoms: _128  and  _129
REMARK   56  A    between atoms: _129  and  _130
REMARK   57  A    between atoms: _130  and  _131
REMARK   58  A    between atoms: _135  and  _137
REMARK   59  A    between atoms: _137  and  _138
REMARK   60  A    between atoms: _137  and  _140
REMARK   61  A    between atoms: _143  and  _145
REMARK   62  A    between atoms: _145  and  _146
REMARK   63  A    between atoms: _145  and  _148
REMARK   64  A    between atoms: _151  and  _153
REMARK   65  A    between atoms: _153  and  _154
REMARK   66  A    between atoms: _156  and  _158
REMARK   67  A    between atoms: _158  and  _159
REMARK   68  A    between atoms: _161  and  _163
REMARK   69  A    between atoms: _163  and  _164
REMARK   70  A    between atoms: _163  and  _166
REMARK   71  A    between atoms: _166  and  _167
REMARK   72  A    between atoms: _170  and  _172
REMARK   73  A    between atoms: _172  and  _173
REMARK   74  A    between atoms: _175  and  _177
REMARK   75  A    between atoms: _177  and  _178
REMARK   76  A    between atoms: _180  and  _182
REMARK   77  A    between atoms: _182  and  _183
REMARK   78  A    between atoms: _182  and  _185
REMARK   79  A    between atoms: _185  and  _186
REMARK   80  A    between atoms: _186  and  _187
REMARK   81  A    between atoms: _189  and  _191
REMARK   82  A    between atoms: _191  and  _192
REMARK   83  A    between atoms: _191  and  _194
REMARK   84  A    between atoms: _194  and  _195
REMARK   85  A    between atoms: _198  and  _200
REMARK   86  A    between atoms: _200  and  _201
REMARK   87  A    between atoms: _200  and  _203
REMARK   88  A    between atoms: _203  and  _204
REMARK   89  A    between atoms: _208  and  _209
REMARK   90  A    between atoms: _214  and  _216
REMARK   91  A    between atoms: _216  and  _217
REMARK   92  A    between atoms: _220  and  _222
REMARK   93  A    between atoms: _222  and  _223
REMARK   94  A    between atoms: _222  and  _225
REMARK   95  A    between atoms: _225  and  _226
REMARK   96  A    between atoms: _231  and  _233
REMARK   97  A    between atoms: _233  and  _234
REMARK   98  A    between atoms: _233  and  _236
REMARK   99  A    between atoms: _236  and  _237
REMARK  100  A    between atoms: _240  and  _242
REMARK  101  A    between atoms: _242  and  _243
REMARK  102  A    between atoms: _242  and  _245
REMARK  103  A    between atoms: _245  and  _246
REMARK  104  A    between atoms: _249  and  _251
REMARK  105  A    between atoms: _251  and  _252
REMARK  106  A    between atoms: _254  and  _256
REMARK  107  A    between atoms: _256  and  _257
REMARK  108  A    between atoms: _256  and  _259
REMARK  109  A    between atoms: _259  and  _260
REMARK  110  A    between atoms: _260  and  _261
REMARK  111  A    between atoms: _261  and  _262
REMARK  112  A    between atoms: _271  and  _273
REMARK  113  A    between atoms: _273  and  _274
REMARK  114  A    between atoms: _273  and  _276
REMARK  115  A    between atoms: _276  and  _277
REMARK  116  A    between atoms: _282  and  _284
REMARK  117  A    between atoms: _284  and  _285
REMARK  118  A    between atoms: _284  and  _287
REMARK  119  A    between atoms: _287  and  _288
REMARK  120  A    between atoms: _288  and  _289
REMARK  121  A    between atoms: _289  and  _290
REMARK  122  A    between atoms: _299  and  _301
REMARK  123  A    between atoms: _301  and  _302
REMARK  124  A    between atoms: _301  and  _304
REMARK  125  A    between atoms: _304  and  _305
REMARK  126  A    between atoms: _311  and  _313
REMARK  127  A    between atoms: _313  and  _314
REMARK  128  A    between atoms: _313  and  _316
REMARK  129  A    between atoms: _316  and  _317
REMARK  130  A    between atoms: _320  and  _322
REMARK  131  A    between atoms: _322  and  _323
REMARK  132  A    between atoms: _322  and  _325
REMARK  133  A    between atoms: _325  and  _326
REMARK  134  A    between atoms: _329  and  _331
REMARK  135  A    between atoms: _331  and  _332
REMARK  136  A    between atoms: _331  and  _334
REMARK  137  A    between atoms: _334  and  _335
REMARK  138  A    between atoms: _338  and  _340
REMARK  139  A    between atoms: _340  and  _341
REMARK  140  A    between atoms: _340  and  _343
REMARK  141  A    between atoms: _343  and  _344
REMARK  142  A    between atoms: _347  and  _349
REMARK  143  A    between atoms: _349  and  _350
REMARK  144  A    between atoms: _352  and  _354
REMARK  145  A    between atoms: _354  and  _355
REMARK  146  A    between atoms: _358  and  _360
REMARK  147  A    between atoms: _360  and  _361
REMARK  148  A    between atoms: _360  and  _363
REMARK  149  A    between atoms: _363  and  _364
REMARK  150  A    between atoms: _367  and  _369
REMARK  151  A    between atoms: _369  and  _370
REMARK  152  A    between atoms: _369  and  _372
REMARK  153  A    between atoms: _372  and  _373
REMARK  154  A    between atoms: _376  and  _378
REMARK  155  A    between atoms: _378  and  _379
REMARK  156  A    between atoms: _378  and  _381
REMARK  157  A    between atoms: _381  and  _382
REMARK  158  A    between atoms: _385  and  _387
REMARK  159  A    between atoms: _387  and  _388
REMARK  160  A    between atoms: _387  and  _390
REMARK  161  A    between atoms: _390  and  _391
REMARK  162  A    between atoms: _394  and  _396
REMARK  163  A    between atoms: _396  and  _397
REMARK  164  A    between atoms: _396  and  _399
REMARK  165  A    between atoms: _399  and  _400
REMARK  166  A    between atoms: _400  and  _401
REMARK  167  A    between atoms: _401  and  _402
REMARK  168  A    between atoms: _402  and  _403
REMARK  169  A    between atoms: _407  and  _409
REMARK  170  A    between atoms: _409  and  _410
REMARK  171  A    between atoms: _409  and  _412
REMARK  172  A    between atoms: _415  and  _417
REMARK  173  A    between atoms: _417  and  _418
REMARK  174  A    between atoms: _417  and  _420
REMARK  175  A    between atoms: _423  and  _425
REMARK  176  A    between atoms: _425  and  _426
REMARK  177  A    between atoms: _428  and  _430
REMARK  178  A    between atoms: _430  and  _431
REMARK  179  A    between atoms: _433  and  _435
REMARK  180  A    between atoms: _435  and  _436
REMARK  181  A    between atoms: _435  and  _438
REMARK  182  A    between atoms: _438  and  _439
REMARK  183  A    between atoms: _442  and  _444
REMARK  184  A    between atoms: _444  and  _445
REMARK  185  A    between atoms: _447  and  _449
REMARK  186  A    between atoms: _449  and  _450
REMARK  187  A    between atoms: _452  and  _454
REMARK  188  A    between atoms: _454  and  _455
REMARK  189  A    between atoms: _454  and  _457
REMARK  190  A    between atoms: _457  and  _458
REMARK  191  A    between atoms: _458  and  _459
REMARK  192  A    between atoms: _461  and  _463
REMARK  193  A    between atoms: _463  and  _464
REMARK  194  A    between atoms: _463  and  _466
REMARK  195  A    between atoms: _466  and  _467
REMARK  196  A    between atoms: _470  and  _472
REMARK  197  A    between atoms: _472  and  _473
REMARK  198  A    between atoms: _472  and  _475
REMARK  199  A    between atoms: _475  and  _476
REMARK  200  A    between atoms: _480  and  _481
REMARK  201  A    between atoms: _486  and  _488
REMARK  202  A    between atoms: _488  and  _489
REMARK  203  A    between atoms: _492  and  _494
REMARK  204  A    between atoms: _494  and  _495
REMARK  205  A    between atoms: _494  and  _497
REMARK  206  A    between atoms: _497  and  _498
REMARK  207  A    between atoms: _503  and  _505
REMARK  208  A    between atoms: _505  and  _506
REMARK  209  A    between atoms: _505  and  _508
REMARK  210  A    between atoms: _508  and  _509
REMARK  211  A    between atoms: _512  and  _514
REMARK  212  A    between atoms: _514  and  _515
REMARK  213  A    between atoms: _514  and  _517
REMARK  214  A    between atoms: _517  and  _518
REMARK  215  A    between atoms: _521  and  _523
REMARK  216  A    between atoms: _523  and  _524
REMARK  217  A    between atoms: _526  and  _528
REMARK  218  A    between atoms: _528  and  _529
REMARK  219  A    between atoms: _528  and  _531
REMARK  220  A    between atoms: _531  and  _532
REMARK  221  A    between atoms: _532  and  _533
REMARK  222  A    between atoms: _533  and  _534
REMARK  223  A    between atoms: _543  and  _545
REMARK  224  A    between atoms: _545  and  _546
REMARK  225  A    between atoms: _545  and  _548
REMARK  226  A    between atoms: _548  and  _549
REMARK                            x       y       z     vdW  Elec       q    Type
REMARK                         _______ _______ _______ _____ _____    ______ ____
ROOT
ATOM      1  O   HOH     1     -20.802  -2.002 -13.371  0.00  0.00    +0.000 OA
ENDROOT
TORSDOF 0
REMARK  Name = ../refined-set-2016/2rkf/2rkf_pocket.pdb
REMARK  226 active torsions:
REMARK  status: ('A' for Active; 'I' for Inactive)
REMARK    1  A    between atoms: _1  and  _3
REMARK    2  A    between atoms: _3  and  _4
REMARK    3  A    between atoms: _3  and  _6
REMARK    4  A    between atoms: _6  and  _7
REMARK    5  A    between atoms: _7  and  _8
REMARK    6  A    between atoms: _8  and  _9
REMARK    7  A    between atoms: _18  and  _20
REMARK    8  A    between atoms: _20  and  _21
REMARK    9  A    between atoms: _20  and  _23
REMARK   10  A    between atoms: _23  and  _24
REMARK   11  A    between atoms: _30  and  _32
REMARK   12  A    between atoms: _32  and  _33
REMARK   13  A    between atoms: _32  and  _35
REMARK   14  A    between atoms: _35  and  _36
REMARK   15  A    between atoms: _39  and  _41
REMARK   16  A    between atoms: _41  and  _42
REMARK   17  A    between atoms: _41  and  _44
REMARK   18  A    between atoms: _44  and  _45
REMARK   19  A    between atoms: _48  and  _50
REMARK   20  A    between atoms: _50  and  _51
REMARK   21  A    between atoms: _50  and  _53
REMARK   22  A    between atoms: _53  and  _54
REMARK   23  A    between atoms: _57  and  _59
REMARK   24  A    between atoms: _59  and  _60
REMARK   25  A    between atoms: _59  and  _62
REMARK   26  A    between atoms: _62  and  _63
REMARK   27  A    between atoms: _66  and  _68
REMARK   28  A    between atoms: _68  and  _69
REMARK   29  A    between atoms: _71  and  _73
REMARK   30  A    between atoms: _73  and  _74
REMARK   31  A    between atoms: _77  and  _79
REMARK   32  A    between atoms: _79  and  _80
REMARK   33  A    between atoms: _79  and  _82
REMARK   34  A    between atoms: _82  and  _83
REMARK   35  A    between atoms: _86  and  _88
REMARK   36  A    between atoms: _88  and  _89
REMARK   37  A    between atoms: _88  and  _91
REMARK   38  A    between atoms: _91  and  _92
REMARK   39  A    between atoms: _95  and  _97
REMARK   40  A    between atoms: _97  and  _98
REMARK   41  A    between atoms: _97  and  _100
REMARK   42  A    between atoms: _100  and  _101
REMARK   43  A    between atoms: _104  and  _106
REMARK   44  A    between atoms: _106  and  _107
REMARK   45  A    between atoms: _106  and  _109
REMARK   46  A    between atoms: _109  and  _110
REMARK   47  A    between atoms: _113  and  _115
REMARK   48  A    between atoms: _115  and  _116
REMARK   49  A    between atoms: _115  and  _118
REMARK   50  A    between atoms: _118  and  _119
REMARK   51  A    between atoms: _122  and  _124
REMARK   52  A    between atoms: _124  and  _125
REMARK   53  A    between atoms: _124  and  _127
REMARK   54  A    between atoms: _127  and  _128
REMARK   55  A    between atoms: _128  and  _129
REMARK   56  A    between atoms: _129  and  _130
REMARK   57  A    between atoms: _130  and  _131
REMARK   58  A    between atoms: _135  and  _137
REMARK   59  A    between atoms: _137  and  _138
REMARK   60  A    between atoms: _137  and  _140
REMARK   61  A    between atoms: _143  and  _145
REMARK   62  A    between atoms: _145  and  _146
REMARK   63  A    between atoms: _145  and  _148
REMARK   64  A    between atoms: _151  and  _153
REMARK   65  A    between atoms: _153  and  _154
REMARK   66  A    between atoms: _156  and  _158
REMARK   67  A    between atoms: _158  and  _159
REMARK   68  A    between atoms: _161  and  _163
REMARK   69  A    between atoms: _163  and  _164
REMARK   70  A    between atoms: _163  and  _166
REMARK   71  A    between atoms: _166  and  _167
REMARK   72  A    between atoms: _170  and  _172
REMARK   73  A    between atoms: _172  and  _173
REMARK   74  A    between atoms: _175  and  _177
REMARK   75  A    between atoms: _177  and  _178
REMARK   76  A    between atoms: _180  and  _182
REMARK   77  A    between atoms: _182  and  _183
REMARK   78  A    between atoms: _182  and  _185
REMARK   79  A    between atoms: _185  and  _186
REMARK   80  A    between atoms: _186  and  _187
REMARK   81  A    between atoms: _189  and  _191
REMARK   82  A    between atoms: _191  and  _192
REMARK   83  A    between atoms: _191  and  _194
REMARK   84  A    between atoms: _194  and  _195
REMARK   85  A    between atoms: _198  and  _200
REMARK   86  A    between atoms: _200  and  _201
REMARK   87  A    between atoms: _200  and  _203
REMARK   88  A    between atoms: _203  and  _204
REMARK   89  A    between atoms: _208  and  _209
REMARK   90  A    between atoms: _214  and  _216
REMARK   91  A    between atoms: _216  and  _217
REMARK   92  A    between atoms: _220  and  _222
REMARK   93  A    between atoms: _222  and  _223
REMARK   94  A    between atoms: _222  and  _225
REMARK   95  A    between atoms: _225  and  _226
REMARK   96  A    between atoms: _231  and  _233
REMARK   97  A    between atoms: _233  and  _234
REMARK   98  A    between atoms: _233  and  _236
REMARK   99  A    between atoms: _236  and  _237
REMARK  100  A    between atoms: _240  and  _242
REMARK  101  A    between atoms: _242  and  _243
REMARK  102  A    between atoms: _242  and  _245
REMARK  103  A    between atoms: _245  and  _246
REMARK  104  A    between atoms: _249  and  _251
REMARK  105  A    between atoms: _251  and  _252
REMARK  106  A    between atoms: _254  and  _256
REMARK  107  A    between atoms: _256  and  _257
REMARK  108  A    between atoms: _256  and  _259
REMARK  109  A    between atoms: _259  and  _260
REMARK  110  A    between atoms: _260  and  _261
REMARK  111  A    between atoms: _261  and  _262
REMARK  112  A    between atoms: _271  and  _273
REMARK  113  A    between atoms: _273  and  _274
REMARK  114  A    between atoms: _273  and  _276
REMARK  115  A    between atoms: _276  and  _277
REMARK  116  A    between atoms: _282  and  _284
REMARK  117  A    between atoms: _284  and  _285
REMARK  118  A    between atoms: _284  and  _287
REMARK  119  A    between atoms: _287  and  _288
REMARK  120  A    between atoms: _288  and  _289
REMARK  121  A    between atoms: _289  and  _290
REMARK  122  A    between atoms: _299  and  _301
REMARK  123  A    between atoms: _301  and  _302
REMARK  124  A    between atoms: _301  and  _304
REMARK  125  A    between atoms: _304  and  _305
REMARK  126  A    between atoms: _311  and  _313
REMARK  127  A    between atoms: _313  and  _314
REMARK  128  A    between atoms: _313  and  _316
REMARK  129  A    between atoms: _316  and  _317
REMARK  130  A    between atoms: _320  and  _322
REMARK  131  A    between atoms: _322  and  _323
REMARK  132  A    between atoms: _322  and  _325
REMARK  133  A    between atoms: _325  and  _326
REMARK  134  A    between atoms: _329  and  _331
REMARK  135  A    between atoms: _331  and  _332
REMARK  136  A    between atoms: _331  and  _334
REMARK  137  A    between atoms: _334  and  _335
REMARK  138  A    between atoms: _338  and  _340
REMARK  139  A    between atoms: _340  and  _341
REMARK  140  A    between atoms: _340  and  _343
REMARK  141  A    between atoms: _343  and  _344
REMARK  142  A    between atoms: _347  and  _349
REMARK  143  A    between atoms: _349  and  _350
REMARK  144  A    between atoms: _352  and  _354
REMARK  145  A    between atoms: _354  and  _355
REMARK  146  A    between atoms: _358  and  _360
REMARK  147  A    between atoms: _360  and  _361
REMARK  148  A    between atoms: _360  and  _363
REMARK  149  A    between atoms: _363  and  _364
REMARK  150  A    between atoms: _367  and  _369
REMARK  151  A    between atoms: _369  and  _370
REMARK  152  A    between atoms: _369  and  _372
REMARK  153  A    between atoms: _372  and  _373
REMARK  154  A    between atoms: _376  and  _378
REMARK  155  A    between atoms: _378  and  _379
REMARK  156  A    between atoms: _378  and  _381
REMARK  157  A    between atoms: _381  and  _382
REMARK  158  A    between atoms: _385  and  _387
REMARK  159  A    between atoms: _387  and  _388
REMARK  160  A    between atoms: _387  and  _390
REMARK  161  A    between atoms: _390  and  _391
REMARK  162  A    between atoms: _394  and  _396
REMARK  163  A    between atoms: _396  and  _397
REMARK  164  A    between atoms: _396  and  _399
REMARK  165  A    between atoms: _399  and  _400
REMARK  166  A    between atoms: _400  and  _401
REMARK  167  A    between atoms: _401  and  _402
REMARK  168  A    between atoms: _402  and  _403
REMARK  169  A    between atoms: _407  and  _409
REMARK  170  A    between atoms: _409  and  _410
REMARK  171  A    between atoms: _409  and  _412
REMARK  172  A    between atoms: _415  and  _417
REMARK  173  A    between atoms: _417  and  _418
REMARK  174  A    between atoms: _417  and  _420
REMARK  175  A    between atoms: _423  and  _425
REMARK  176  A    between atoms: _425  and  _426
REMARK  177  A    between atoms: _428  and  _430
REMARK  178  A    between atoms: _430  and  _431
REMARK  179  A    between atoms: _433  and  _435
REMARK  180  A    between atoms: _435  and  _436
REMARK  181  A    between atoms: _435  and  _438
REMARK  182  A    between atoms: _438  and  _439
REMARK  183  A    between atoms: _442  and  _444
REMARK  184  A    between atoms: _444  and  _445
REMARK  185  A    between atoms: _447  and  _449
REMARK  186  A    between atoms: _449  and  _450
REMARK  187  A    between atoms: _452  and  _454
REMARK  188  A    between atoms: _454  and  _455
REMARK  189  A    between atoms: _454  and  _457
REMARK  190  A    between atoms: _457  and  _458
REMARK  191  A    between atoms: _458  and  _459
REMARK  192  A    between atoms: _461  and  _463
REMARK  193  A    between atoms: _463  and  _464
REMARK  194  A    between atoms: _463  and  _466
REMARK  195  A    between atoms: _466  and  _467
REMARK  196  A    between atoms: _470  and  _472
REMARK  197  A    between atoms: _472  and  _473
REMARK  198  A    between atoms: _472  and  _475
REMARK  199  A    between atoms: _475  and  _476
REMARK  200  A    between atoms: _480  and  _481
REMARK  201  A    between atoms: _486  and  _488
REMARK  202  A    between atoms: _488  and  _489
REMARK  203  A    between atoms: _492  and  _494
REMARK  204  A    between atoms: _494  and  _495
REMARK  205  A    between atoms: _494  and  _497
REMARK  206  A    between atoms: _497  and  _498
REMARK  207  A    between atoms: _503  and  _505
REMARK  208  A    between atoms: _505  and  _506
REMARK  209  A    between atoms: _505  and  _508
REMARK  210  A    between atoms: _508  and  _509
REMARK  211  A    between atoms: _512  and  _514
REMARK  212  A    between atoms: _514  and  _515
REMARK  213  A    between atoms: _514  and  _517
REMARK  214  A    between atoms: _517  and  _518
REMARK  215  A    between atoms: _521  and  _523
REMARK  216  A    between atoms: _523  and  _524
REMARK  217  A    between atoms: _526  and  _528
REMARK  218  A    between atoms: _528  and  _529
REMARK  219  A    between atoms: _528  and  _531
REMARK  220  A    between atoms: _531  and  _532
REMARK  221  A    between atoms: _532  and  _533
REMARK  222  A    between atoms: _533  and  _534
REMARK  223  A    between atoms: _543  and  _545
REMARK  224  A    between atoms: _545  and  _546
REMARK  225  A    between atoms: _545  and  _548
REMARK  226  A    between atoms: _548  and  _549
REMARK                            x       y       z     vdW  Elec       q    Type
REMARK                         _______ _______ _______ _____ _____    ______ ____
ROOT
ATOM      1  O   HOH     1     -20.204  -7.720   3.518  0.00  0.00    +0.000 OA
ENDROOT
TORSDOF 0
REMARK  Name = ../refined-set-2016/2rkf/2rkf_pocket.pdb
REMARK  226 active torsions:
REMARK  status: ('A' for Active; 'I' for Inactive)
REMARK    1  A    between atoms: _1  and  _3
REMARK    2  A    between atoms: _3  and  _4
REMARK    3  A    between atoms: _3  and  _6
REMARK    4  A    between atoms: _6  and  _7
REMARK    5  A    between atoms: _7  and  _8
REMARK    6  A    between atoms: _8  and  _9
REMARK    7  A    between atoms: _18  and  _20
REMARK    8  A    between atoms: _20  and  _21
REMARK    9  A    between atoms: _20  and  _23
REMARK   10  A    between atoms: _23  and  _24
REMARK   11  A    between atoms: _30  and  _32
REMARK   12  A    between atoms: _32  and  _33
REMARK   13  A    between atoms: _32  and  _35
REMARK   14  A    between atoms: _35  and  _36
REMARK   15  A    between atoms: _39  and  _41
REMARK   16  A    between atoms: _41  and  _42
REMARK   17  A    between atoms: _41  and  _44
REMARK   18  A    between atoms: _44  and  _45
REMARK   19  A    between atoms: _48  and  _50
REMARK   20  A    between atoms: _50  and  _51
REMARK   21  A    between atoms: _50  and  _53
REMARK   22  A    between atoms: _53  and  _54
REMARK   23  A    between atoms: _57  and  _59
REMARK   24  A    between atoms: _59  and  _60
REMARK   25  A    between atoms: _59  and  _62
REMARK   26  A    between atoms: _62  and  _63
REMARK   27  A    between atoms: _66  and  _68
REMARK   28  A    between atoms: _68  and  _69
REMARK   29  A    between atoms: _71  and  _73
REMARK   30  A    between atoms: _73  and  _74
REMARK   31  A    between atoms: _77  and  _79
REMARK   32  A    between atoms: _79  and  _80
REMARK   33  A    between atoms: _79  and  _82
REMARK   34  A    between atoms: _82  and  _83
REMARK   35  A    between atoms: _86  and  _88
REMARK   36  A    between atoms: _88  and  _89
REMARK   37  A    between atoms: _88  and  _91
REMARK   38  A    between atoms: _91  and  _92
REMARK   39  A    between atoms: _95  and  _97
REMARK   40  A    between atoms: _97  and  _98
REMARK   41  A    between atoms: _97  and  _100
REMARK   42  A    between atoms: _100  and  _101
REMARK   43  A    between atoms: _104  and  _106
REMARK   44  A    between atoms: _106  and  _107
REMARK   45  A    between atoms: _106  and  _109
REMARK   46  A    between atoms: _109  and  _110
REMARK   47  A    between atoms: _113  and  _115
REMARK   48  A    between atoms: _115  and  _116
REMARK   49  A    between atoms: _115  and  _118
REMARK   50  A    between atoms: _118  and  _119
REMARK   51  A    between atoms: _122  and  _124
REMARK   52  A    between atoms: _124  and  _125
REMARK   53  A    between atoms: _124  and  _127
REMARK   54  A    between atoms: _127  and  _128
REMARK   55  A    between atoms: _128  and  _129
REMARK   56  A    between atoms: _129  and  _130
REMARK   57  A    between atoms: _130  and  _131
REMARK   58  A    between atoms: _135  and  _137
REMARK   59  A    between atoms: _137  and  _138
REMARK   60  A    between atoms: _137  and  _140
REMARK   61  A    between atoms: _143  and  _145
REMARK   62  A    between atoms: _145  and  _146
REMARK   63  A    between atoms: _145  and  _148
REMARK   64  A    between atoms: _151  and  _153
REMARK   65  A    between atoms: _153  and  _154
REMARK   66  A    between atoms: _156  and  _158
REMARK   67  A    between atoms: _158  and  _159
REMARK   68  A    between atoms: _161  and  _163
REMARK   69  A    between atoms: _163  and  _164
REMARK   70  A    between atoms: _163  and  _166
REMARK   71  A    between atoms: _166  and  _167
REMARK   72  A    between atoms: _170  and  _172
REMARK   73  A    between atoms: _172  and  _173
REMARK   74  A    between atoms: _175  and  _177
REMARK   75  A    between atoms: _177  and  _178
REMARK   76  A    between atoms: _180  and  _182
REMARK   77  A    between atoms: _182  and  _183
REMARK   78  A    between atoms: _182  and  _185
REMARK   79  A    between atoms: _185  and  _186
REMARK   80  A    between atoms: _186  and  _187
REMARK   81  A    between atoms: _189  and  _191
REMARK   82  A    between atoms: _191  and  _192
REMARK   83  A    between atoms: _191  and  _194
REMARK   84  A    between atoms: _194  and  _195
REMARK   85  A    between atoms: _198  and  _200
REMARK   86  A    between atoms: _200  and  _201
REMARK   87  A    between atoms: _200  and  _203
REMARK   88  A    between atoms: _203  and  _204
REMARK   89  A    between atoms: _208  and  _209
REMARK   90  A    between atoms: _214  and  _216
REMARK   91  A    between atoms: _216  and  _217
REMARK   92  A    between atoms: _220  and  _222
REMARK   93  A    between atoms: _222  and  _223
REMARK   94  A    between atoms: _222  and  _225
REMARK   95  A    between atoms: _225  and  _226
REMARK   96  A    between atoms: _231  and  _233
REMARK   97  A    between atoms: _233  and  _234
REMARK   98  A    between atoms: _233  and  _236
REMARK   99  A    between atoms: _236  and  _237
REMARK  100  A    between atoms: _240  and  _242
REMARK  101  A    between atoms: _242  and  _243
REMARK  102  A    between atoms: _242  and  _245
REMARK  103  A    between atoms: _245  and  _246
REMARK  104  A    between atoms: _249  and  _251
REMARK  105  A    between atoms: _251  and  _252
REMARK  106  A    between atoms: _254  and  _256
REMARK  107  A    between atoms: _256  and  _257
REMARK  108  A    between atoms: _256  and  _259
REMARK  109  A    between atoms: _259  and  _260
REMARK  110  A    between atoms: _260  and  _261
REMARK  111  A    between atoms: _261  and  _262
REMARK  112  A    between atoms: _271  and  _273
REMARK  113  A    between atoms: _273  and  _274
REMARK  114  A    between atoms: _273  and  _276
REMARK  115  A    between atoms: _276  and  _277
REMARK  116  A    between atoms: _282  and  _284
REMARK  117  A    between atoms: _284  and  _285
REMARK  118  A    between atoms: _284  and  _287
REMARK  119  A    between atoms: _287  and  _288
REMARK  120  A    between atoms: _288  and  _289
REMARK  121  A    between atoms: _289  and  _290
REMARK  122  A    between atoms: _299  and  _301
REMARK  123  A    between atoms: _301  and  _302
REMARK  124  A    between atoms: _301  and  _304
REMARK  125  A    between atoms: _304  and  _305
REMARK  126  A    between atoms: _311  and  _313
REMARK  127  A    between atoms: _313  and  _314
REMARK  128  A    between atoms: _313  and  _316
REMARK  129  A    between atoms: _316  and  _317
REMARK  130  A    between atoms: _320  and  _322
REMARK  131  A    between atoms: _322  and  _323
REMARK  132  A    between atoms: _322  and  _325
REMARK  133  A    between atoms: _325  and  _326
REMARK  134  A    between atoms: _329  and  _331
REMARK  135  A    between atoms: _331  and  _332
REMARK  136  A    between atoms: _331  and  _334
REMARK  137  A    between atoms: _334  and  _335
REMARK  138  A    between atoms: _338  and  _340
REMARK  139  A    between atoms: _340  and  _341
REMARK  140  A    between atoms: _340  and  _343
REMARK  141  A    between atoms: _343  and  _344
REMARK  142  A    between atoms: _347  and  _349
REMARK  143  A    between atoms: _349  and  _350
REMARK  144  A    between atoms: _352  and  _354
REMARK  145  A    between atoms: _354  and  _355
REMARK  146  A    between atoms: _358  and  _360
REMARK  147  A    between atoms: _360  and  _361
REMARK  148  A    between atoms: _360  and  _363
REMARK  149  A    between atoms: _363  and  _364
REMARK  150  A    between atoms: _367  and  _369
REMARK  151  A    between atoms: _369  and  _370
REMARK  152  A    between atoms: _369  and  _372
REMARK  153  A    between atoms: _372  and  _373
REMARK  154  A    between atoms: _376  and  _378
REMARK  155  A    between atoms: _378  and  _379
REMARK  156  A    between atoms: _378  and  _381
REMARK  157  A    between atoms: _381  and  _382
REMARK  158  A    between atoms: _385  and  _387
REMARK  159  A    between atoms: _387  and  _388
REMARK  160  A    between atoms: _387  and  _390
REMARK  161  A    between atoms: _390  and  _391
REMARK  162  A    between atoms: _394  and  _396
REMARK  163  A    between atoms: _396  and  _397
REMARK  164  A    between atoms: _396  and  _399
REMARK  165  A    between atoms: _399  and  _400
REMARK  166  A    between atoms: _400  and  _401
REMARK  167  A    between atoms: _401  and  _402
REMARK  168  A    between atoms: _402  and  _403
REMARK  169  A    between atoms: _407  and  _409
REMARK  170  A    between atoms: _409  and  _410
REMARK  171  A    between atoms: _409  and  _412
REMARK  172  A    between atoms: _415  and  _417
REMARK  173  A    between atoms: _417  and  _418
REMARK  174  A    between atoms: _417  and  _420
REMARK  175  A    between atoms: _423  and  _425
REMARK  176  A    between atoms: _425  and  _426
REMARK  177  A    between atoms: _428  and  _430
REMARK  178  A    between atoms: _430  and  _431
REMARK  179  A    between atoms: _433  and  _435
REMARK  180  A    between atoms: _435  and  _436
REMARK  181  A    between atoms: _435  and  _438
REMARK  182  A    between atoms: _438  and  _439
REMARK  183  A    between atoms: _442  and  _444
REMARK  184  A    between atoms: _444  and  _445
REMARK  185  A    between atoms: _447  and  _449
REMARK  186  A    between atoms: _449  and  _450
REMARK  187  A    between atoms: _452  and  _454
REMARK  188  A    between atoms: _454  and  _455
REMARK  189  A    between atoms: _454  and  _457
REMARK  190  A    between atoms: _457  and  _458
REMARK  191  A    between atoms: _458  and  _459
REMARK  192  A    between atoms: _461  and  _463
REMARK  193  A    between atoms: _463  and  _464
REMARK  194  A    between atoms: _463  and  _466
REMARK  195  A    between atoms: _466  and  _467
REMARK  196  A    between atoms: _470  and  _472
REMARK  197  A    between atoms: _472  and  _473
REMARK  198  A    between atoms: _472  and  _475
REMARK  199  A    between atoms: _475  and  _476
REMARK  200  A    between atoms: _480  and  _481
REMARK  201  A    between atoms: _486  and  _488
REMARK  202  A    between atoms: _488  and  _489
REMARK  203  A    between atoms: _492  and  _494
REMARK  204  A    between atoms: _494  and  _495
REMARK  205  A    between atoms: _494  and  _497
REMARK  206  A    between atoms: _497  and  _498
REMARK  207  A    between atoms: _503  and  _505
REMARK  208  A    between atoms: _505  and  _506
REMARK  209  A    between atoms: _505  and  _508
REMARK  210  A    between atoms: _508  and  _509
REMARK  211  A    between atoms: _512  and  _514
REMARK  212  A    between atoms: _514  and  _515
REMARK  213  A    between atoms: _514  and  _517
REMARK  214  A    between atoms: _517  and  _518
REMARK  215  A    between atoms: _521  and  _523
REMARK  216  A    between atoms: _523  and  _524
REMARK  217  A    between atoms: _526  and  _528
REMARK  218  A    between atoms: _528  and  _529
REMARK  219  A    between atoms: _528  and  _531
REMARK  220  A    between atoms: _531  and  _532
REMARK  221  A    between atoms: _532  and  _533
REMARK  222  A    between atoms: _533  and  _534
REMARK  223  A    between atoms: _543  and  _545
REMARK  224  A    between atoms: _545  and  _546
REMARK  225  A    between atoms: _545  and  _548
REMARK  226  A    between atoms: _548  and  _549
REMARK                            x       y       z     vdW  Elec       q    Type
REMARK                         _______ _______ _______ _____ _____    ______ ____
ROOT
ATOM      1  O   HOH     1     -15.197   4.645 -12.557  0.00  0.00    +0.000 OA
ENDROOT
TORSDOF 0
REMARK  Name = ../refined-set-2016/2rkf/2rkf_pocket.pdb
REMARK  226 active torsions:
REMARK  status: ('A' for Active; 'I' for Inactive)
REMARK    1  A    between atoms: _1  and  _3
REMARK    2  A    between atoms: _3  and  _4
REMARK    3  A    between atoms: _3  and  _6
REMARK    4  A    between atoms: _6  and  _7
REMARK    5  A    between atoms: _7  and  _8
REMARK    6  A    between atoms: _8  and  _9
REMARK    7  A    between atoms: _18  and  _20
REMARK    8  A    between atoms: _20  and  _21
REMARK    9  A    between atoms: _20  and  _23
REMARK   10  A    between atoms: _23  and  _24
REMARK   11  A    between atoms: _30  and  _32
REMARK   12  A    between atoms: _32  and  _33
REMARK   13  A    between atoms: _32  and  _35
REMARK   14  A    between atoms: _35  and  _36
REMARK   15  A    between atoms: _39  and  _41
REMARK   16  A    between atoms: _41  and  _42
REMARK   17  A    between atoms: _41  and  _44
REMARK   18  A    between atoms: _44  and  _45
REMARK   19  A    between atoms: _48  and  _50
REMARK   20  A    between atoms: _50  and  _51
REMARK   21  A    between atoms: _50  and  _53
REMARK   22  A    between atoms: _53  and  _54
REMARK   23  A    between atoms: _57  and  _59
REMARK   24  A    between atoms: _59  and  _60
REMARK   25  A    between atoms: _59  and  _62
REMARK   26  A    between atoms: _62  and  _63
REMARK   27  A    between atoms: _66  and  _68
REMARK   28  A    between atoms: _68  and  _69
REMARK   29  A    between atoms: _71  and  _73
REMARK   30  A    between atoms: _73  and  _74
REMARK   31  A    between atoms: _77  and  _79
REMARK   32  A    between atoms: _79  and  _80
REMARK   33  A    between atoms: _79  and  _82
REMARK   34  A    between atoms: _82  and  _83
REMARK   35  A    between atoms: _86  and  _88
REMARK   36  A    between atoms: _88  and  _89
REMARK   37  A    between atoms: _88  and  _91
REMARK   38  A    between atoms: _91  and  _92
REMARK   39  A    between atoms: _95  and  _97
REMARK   40  A    between atoms: _97  and  _98
REMARK   41  A    between atoms: _97  and  _100
REMARK   42  A    between atoms: _100  and  _101
REMARK   43  A    between atoms: _104  and  _106
REMARK   44  A    between atoms: _106  and  _107
REMARK   45  A    between atoms: _106  and  _109
REMARK   46  A    between atoms: _109  and  _110
REMARK   47  A    between atoms: _113  and  _115
REMARK   48  A    between atoms: _115  and  _116
REMARK   49  A    between atoms: _115  and  _118
REMARK   50  A    between atoms: _118  and  _119
REMARK   51  A    between atoms: _122  and  _124
REMARK   52  A    between atoms: _124  and  _125
REMARK   53  A    between atoms: _124  and  _127
REMARK   54  A    between atoms: _127  and  _128
REMARK   55  A    between atoms: _128  and  _129
REMARK   56  A    between atoms: _129  and  _130
REMARK   57  A    between atoms: _130  and  _131
REMARK   58  A    between atoms: _135  and  _137
REMARK   59  A    between atoms: _137  and  _138
REMARK   60  A    between atoms: _137  and  _140
REMARK   61  A    between atoms: _143  and  _145
REMARK   62  A    between atoms: _145  and  _146
REMARK   63  A    between atoms: _145  and  _148
REMARK   64  A    between atoms: _151  and  _153
REMARK   65  A    between atoms: _153  and  _154
REMARK   66  A    between atoms: _156  and  _158
REMARK   67  A    between atoms: _158  and  _159
REMARK   68  A    between atoms: _161  and  _163
REMARK   69  A    between atoms: _163  and  _164
REMARK   70  A    between atoms: _163  and  _166
REMARK   71  A    between atoms: _166  and  _167
REMARK   72  A    between atoms: _170  and  _172
REMARK   73  A    between atoms: _172  and  _173
REMARK   74  A    between atoms: _175  and  _177
REMARK   75  A    between atoms: _177  and  _178
REMARK   76  A    between atoms: _180  and  _182
REMARK   77  A    between atoms: _182  and  _183
REMARK   78  A    between atoms: _182  and  _185
REMARK   79  A    between atoms: _185  and  _186
REMARK   80  A    between atoms: _186  and  _187
REMARK   81  A    between atoms: _189  and  _191
REMARK   82  A    between atoms: _191  and  _192
REMARK   83  A    between atoms: _191  and  _194
REMARK   84  A    between atoms: _194  and  _195
REMARK   85  A    between atoms: _198  and  _200
REMARK   86  A    between atoms: _200  and  _201
REMARK   87  A    between atoms: _200  and  _203
REMARK   88  A    between atoms: _203  and  _204
REMARK   89  A    between atoms: _208  and  _209
REMARK   90  A    between atoms: _214  and  _216
REMARK   91  A    between atoms: _216  and  _217
REMARK   92  A    between atoms: _220  and  _222
REMARK   93  A    between atoms: _222  and  _223
REMARK   94  A    between atoms: _222  and  _225
REMARK   95  A    between atoms: _225  and  _226
REMARK   96  A    between atoms: _231  and  _233
REMARK   97  A    between atoms: _233  and  _234
REMARK   98  A    between atoms: _233  and  _236
REMARK   99  A    between atoms: _236  and  _237
REMARK  100  A    between atoms: _240  and  _242
REMARK  101  A    between atoms: _242  and  _243
REMARK  102  A    between atoms: _242  and  _245
REMARK  103  A    between atoms: _245  and  _246
REMARK  104  A    between atoms: _249  and  _251
REMARK  105  A    between atoms: _251  and  _252
REMARK  106  A    between atoms: _254  and  _256
REMARK  107  A    between atoms: _256  and  _257
REMARK  108  A    between atoms: _256  and  _259
REMARK  109  A    between atoms: _259  and  _260
REMARK  110  A    between atoms: _260  and  _261
REMARK  111  A    between atoms: _261  and  _262
REMARK  112  A    between atoms: _271  and  _273
REMARK  113  A    between atoms: _273  and  _274
REMARK  114  A    between atoms: _273  and  _276
REMARK  115  A    between atoms: _276  and  _277
REMARK  116  A    between atoms: _282  and  _284
REMARK  117  A    between atoms: _284  and  _285
REMARK  118  A    between atoms: _284  and  _287
REMARK  119  A    between atoms: _287  and  _288
REMARK  120  A    between atoms: _288  and  _289
REMARK  121  A    between atoms: _289  and  _290
REMARK  122  A    between atoms: _299  and  _301
REMARK  123  A    between atoms: _301  and  _302
REMARK  124  A    between atoms: _301  and  _304
REMARK  125  A    between atoms: _304  and  _305
REMARK  126  A    between atoms: _311  and  _313
REMARK  127  A    between atoms: _313  and  _314
REMARK  128  A    between atoms: _313  and  _316
REMARK  129  A    between atoms: _316  and  _317
REMARK  130  A    between atoms: _320  and  _322
REMARK  131  A    between atoms: _322  and  _323
REMARK  132  A    between atoms: _322  and  _325
REMARK  133  A    between atoms: _325  and  _326
REMARK  134  A    between atoms: _329  and  _331
REMARK  135  A    between atoms: _331  and  _332
REMARK  136  A    between atoms: _331  and  _334
REMARK  137  A    between atoms: _334  and  _335
REMARK  138  A    between atoms: _338  and  _340
REMARK  139  A    between atoms: _340  and  _341
REMARK  140  A    between atoms: _340  and  _343
REMARK  141  A    between atoms: _343  and  _344
REMARK  142  A    between atoms: _347  and  _349
REMARK  143  A    between atoms: _349  and  _350
REMARK  144  A    between atoms: _352  and  _354
REMARK  145  A    between atoms: _354  and  _355
REMARK  146  A    between atoms: _358  and  _360
REMARK  147  A    between atoms: _360  and  _361
REMARK  148  A    between atoms: _360  and  _363
REMARK  149  A    between atoms: _363  and  _364
REMARK  150  A    between atoms: _367  and  _369
REMARK  151  A    between atoms: _369  and  _370
REMARK  152  A    between atoms: _369  and  _372
REMARK  153  A    between atoms: _372  and  _373
REMARK  154  A    between atoms: _376  and  _378
REMARK  155  A    between atoms: _378  and  _379
REMARK  156  A    between atoms: _378  and  _381
REMARK  157  A    between atoms: _381  and  _382
REMARK  158  A    between atoms: _385  and  _387
REMARK  159  A    between atoms: _387  and  _388
REMARK  160  A    between atoms: _387  and  _390
REMARK  161  A    between atoms: _390  and  _391
REMARK  162  A    between atoms: _394  and  _396
REMARK  163  A    between atoms: _396  and  _397
REMARK  164  A    between atoms: _396  and  _399
REMARK  165  A    between atoms: _399  and  _400
REMARK  166  A    between atoms: _400  and  _401
REMARK  167  A    between atoms: _401  and  _402
REMARK  168  A    between atoms: _402  and  _403
REMARK  169  A    between atoms: _407  and  _409
REMARK  170  A    between atoms: _409  and  _410
REMARK  171  A    between atoms: _409  and  _412
REMARK  172  A    between atoms: _415  and  _417
REMARK  173  A    between atoms: _417  and  _418
REMARK  174  A    between atoms: _417  and  _420
REMARK  175  A    between atoms: _423  and  _425
REMARK  176  A    between atoms: _425  and  _426
REMARK  177  A    between atoms: _428  and  _430
REMARK  178  A    between atoms: _430  and  _431
REMARK  179  A    between atoms: _433  and  _435
REMARK  180  A    between atoms: _435  and  _436
REMARK  181  A    between atoms: _435  and  _438
REMARK  182  A    between atoms: _438  and  _439
REMARK  183  A    between atoms: _442  and  _444
REMARK  184  A    between atoms: _444  and  _445
REMARK  185  A    between atoms: _447  and  _449
REMARK  186  A    between atoms: _449  and  _450
REMARK  187  A    between atoms: _452  and  _454
REMARK  188  A    between atoms: _454  and  _455
REMARK  189  A    between atoms: _454  and  _457
REMARK  190  A    between atoms: _457  and  _458
REMARK  191  A    between atoms: _458  and  _459
REMARK  192  A    between atoms: _461  and  _463
REMARK  193  A    between atoms: _463  and  _464
REMARK  194  A    between atoms: _463  and  _466
REMARK  195  A    between atoms: _466  and  _467
REMARK  196  A    between atoms: _470  and  _472
REMARK  197  A    between atoms: _472  and  _473
REMARK  198  A    between atoms: _472  and  _475
REMARK  199  A    between atoms: _475  and  _476
REMARK  200  A    between atoms: _480  and  _481
REMARK  201  A    between atoms: _486  and  _488
REMARK  202  A    between atoms: _488  and  _489
REMARK  203  A    between atoms: _492  and  _494
REMARK  204  A    between atoms: _494  and  _495
REMARK  205  A    between atoms: _494  and  _497
REMARK  206  A    between atoms: _497  and  _498
REMARK  207  A    between atoms: _503  and  _505
REMARK  208  A    between atoms: _505  and  _506
REMARK  209  A    between atoms: _505  and  _508
REMARK  210  A    between atoms: _508  and  _509
REMARK  211  A    between atoms: _512  and  _514
REMARK  212  A    between atoms: _514  and  _515
REMARK  213  A    between atoms: _514  and  _517
REMARK  214  A    between atoms: _517  and  _518
REMARK  215  A    between atoms: _521  and  _523
REMARK  216  A    between atoms: _523  and  _524
REMARK  217  A    between atoms: _526  and  _528
REMARK  218  A    between atoms: _528  and  _529
REMARK  219  A    between atoms: _528  and  _531
REMARK  220  A    between atoms: _531  and  _532
REMARK  221  A    between atoms: _532  and  _533
REMARK  222  A    between atoms: _533  and  _534
REMARK  223  A    between atoms: _543  and  _545
REMARK  224  A    between atoms: _545  and  _546
REMARK  225  A    between atoms: _545  and  _548
REMARK  226  A    between atoms: _548  and  _549
REMARK                            x       y       z     vdW  Elec       q    Type
REMARK                         _______ _______ _______ _____ _____    ______ ____
ROOT
ATOM      1  O   HOH     1     -18.610   5.512 -10.416  0.00  0.00    +0.000 OA
ENDROOT
TORSDOF 0
