REMARK  Name = ../refined-set-2016/1grp/1grp_pocket.pdb
REMARK  155 active torsions:
REMARK  status: ('A' for Active; 'I' for Inactive)
REMARK    1  A    between atoms: _1  and  _3
REMARK    2  A    between atoms: _3  and  _4
REMARK    3  A    between atoms: _3  and  _6
REMARK    4  A    between atoms: _6  and  _7
REMARK    5  A    between atoms: _7  and  _8
REMARK    6  A    between atoms: _8  and  _9
REMARK    7  A    between atoms: _9  and  _10
REMARK    8  A    between atoms: _14  and  _16
REMARK    9  A    between atoms: _16  and  _17
REMARK   10  A    between atoms: _16  and  _19
REMARK   11  A    between atoms: _19  and  _20
REMARK   12  A    between atoms: _23  and  _25
REMARK   13  A    between atoms: _25  and  _26
REMARK   14  A    between atoms: _25  and  _28
REMARK   15  A    between atoms: _28  and  _29
REMARK   16  A    between atoms: _32  and  _34
REMARK   17  A    between atoms: _34  and  _35
REMARK   18  A    between atoms: _34  and  _37
REMARK   19  A    between atoms: _37  and  _38
REMARK   20  A    between atoms: _41  and  _43
REMARK   21  A    between atoms: _43  and  _44
REMARK   22  A    between atoms: _43  and  _46
REMARK   23  A    between atoms: _46  and  _47
REMARK   24  A    between atoms: _47  and  _48
REMARK   25  A    between atoms: _48  and  _49
REMARK   26  A    between atoms: _58  and  _60
REMARK   27  A    between atoms: _60  and  _61
REMARK   28  A    between atoms: _60  and  _63
REMARK   29  A    between atoms: _63  and  _64
REMARK   30  A    between atoms: _66  and  _68
REMARK   31  A    between atoms: _68  and  _69
REMARK   32  A    between atoms: _68  and  _71
REMARK   33  A    between atoms: _71  and  _72
REMARK   34  A    between atoms: _75  and  _77
REMARK   35  A    between atoms: _77  and  _78
REMARK   36  A    between atoms: _77  and  _80
REMARK   37  A    between atoms: _80  and  _81
REMARK   38  A    between atoms: _84  and  _86
REMARK   39  A    between atoms: _86  and  _87
REMARK   40  A    between atoms: _86  and  _89
REMARK   41  A    between atoms: _92  and  _94
REMARK   42  A    between atoms: _94  and  _95
REMARK   43  A    between atoms: _98  and  _100
REMARK   44  A    between atoms: _100  and  _101
REMARK   45  A    between atoms: _100  and  _103
REMARK   46  A    between atoms: _103  and  _104
REMARK   47  A    between atoms: _104  and  _105
REMARK   48  A    between atoms: _105  and  _106
REMARK   49  A    between atoms: _115  and  _117
REMARK   50  A    between atoms: _117  and  _118
REMARK   51  A    between atoms: _117  and  _120
REMARK   52  A    between atoms: _122  and  _124
REMARK   53  A    between atoms: _124  and  _125
REMARK   54  A    between atoms: _124  and  _127
REMARK   55  A    between atoms: _127  and  _128
REMARK   56  A    between atoms: _128  and  _129
REMARK   57  A    between atoms: _129  and  _130
REMARK   58  A    between atoms: _139  and  _141
REMARK   59  A    between atoms: _141  and  _142
REMARK   60  A    between atoms: _141  and  _144
REMARK   61  A    between atoms: _144  and  _145
REMARK   62  A    between atoms: _145  and  _146
REMARK   63  A    between atoms: _146  and  _147
REMARK   64  A    between atoms: _156  and  _158
REMARK   65  A    between atoms: _158  and  _159
REMARK   66  A    between atoms: _158  and  _161
REMARK   67  A    between atoms: _161  and  _162
REMARK   68  A    between atoms: _167  and  _169
REMARK   69  A    between atoms: _169  and  _170
REMARK   70  A    between atoms: _169  and  _172
REMARK   71  A    between atoms: _172  and  _173
REMARK   72  A    between atoms: _178  and  _179
REMARK   73  A    between atoms: _181  and  _183
REMARK   74  A    between atoms: _183  and  _184
REMARK   75  A    between atoms: _183  and  _186
REMARK   76  A    between atoms: _186  and  _187
REMARK   77  A    between atoms: _192  and  _194
REMARK   78  A    between atoms: _194  and  _195
REMARK   79  A    between atoms: _194  and  _197
REMARK   80  A    between atoms: _197  and  _198
REMARK   81  A    between atoms: _201  and  _203
REMARK   82  A    between atoms: _203  and  _204
REMARK   83  A    between atoms: _206  and  _208
REMARK   84  A    between atoms: _208  and  _209
REMARK   85  A    between atoms: _208  and  _211
REMARK   86  A    between atoms: _211  and  _212
REMARK   87  A    between atoms: _212  and  _213
REMARK   88  A    between atoms: _215  and  _217
REMARK   89  A    between atoms: _217  and  _218
REMARK   90  A    between atoms: _217  and  _220
REMARK   91  A    between atoms: _220  and  _221
REMARK   92  A    between atoms: _226  and  _227
REMARK   93  A    between atoms: _229  and  _231
REMARK   94  A    between atoms: _231  and  _232
REMARK   95  A    between atoms: _231  and  _234
REMARK   96  A    between atoms: _234  and  _235
REMARK   97  A    between atoms: _237  and  _239
REMARK   98  A    between atoms: _239  and  _240
REMARK   99  A    between atoms: _239  and  _242
REMARK  100  A    between atoms: _242  and  _243
REMARK  101  A    between atoms: _246  and  _248
REMARK  102  A    between atoms: _248  and  _249
REMARK  103  A    between atoms: _248  and  _251
REMARK  104  A    between atoms: _251  and  _252
REMARK  105  A    between atoms: _257  and  _259
REMARK  106  A    between atoms: _259  and  _260
REMARK  107  A    between atoms: _259  and  _262
REMARK  108  A    between atoms: _262  and  _263
REMARK  109  A    between atoms: _263  and  _264
REMARK  110  A    between atoms: _267  and  _269
REMARK  111  A    between atoms: _269  and  _270
REMARK  112  A    between atoms: _273  and  _275
REMARK  113  A    between atoms: _275  and  _276
REMARK  114  A    between atoms: _275  and  _278
REMARK  115  A    between atoms: _278  and  _279
REMARK  116  A    between atoms: _282  and  _284
REMARK  117  A    between atoms: _284  and  _285
REMARK  118  A    between atoms: _284  and  _287
REMARK  119  A    between atoms: _287  and  _288
REMARK  120  A    between atoms: _293  and  _295
REMARK  121  A    between atoms: _295  and  _296
REMARK  122  A    between atoms: _298  and  _300
REMARK  123  A    between atoms: _300  and  _301
REMARK  124  A    between atoms: _300  and  _303
REMARK  125  A    between atoms: _303  and  _304
REMARK  126  A    between atoms: _307  and  _309
REMARK  127  A    between atoms: _309  and  _310
REMARK  128  A    between atoms: _309  and  _312
REMARK  129  A    between atoms: _312  and  _313
REMARK  130  A    between atoms: _313  and  _314
REMARK  131  A    between atoms: _314  and  _315
REMARK  132  A    between atoms: _315  and  _316
REMARK  133  A    between atoms: _320  and  _322
REMARK  134  A    between atoms: _322  and  _323
REMARK  135  A    between atoms: _322  and  _325
REMARK  136  A    between atoms: _325  and  _326
REMARK  137  A    between atoms: _331  and  _333
REMARK  138  A    between atoms: _333  and  _334
REMARK  139  A    between atoms: _333  and  _336
REMARK  140  A    between atoms: _336  and  _337
REMARK  141  A    between atoms: _340  and  _342
REMARK  142  A    between atoms: _342  and  _343
REMARK  143  A    between atoms: _342  and  _345
REMARK  144  A    between atoms: _345  and  _346
REMARK  145  A    between atoms: _346  and  _347
REMARK  146  A    between atoms: _349  and  _351
REMARK  147  A    between atoms: _351  and  _352
REMARK  148  A    between atoms: _351  and  _354
REMARK  149  A    between atoms: _354  and  _355
REMARK  150  A    between atoms: _358  and  _360
REMARK  151  A    between atoms: _360  and  _361
REMARK  152  A    between atoms: _360  and  _363
REMARK  153  A    between atoms: _363  and  _364
REMARK  154  A    between atoms: _367  and  _369
REMARK  155  A    between atoms: _369  and  _370
REMARK                            x       y       z     vdW  Elec       q    Type
REMARK                         _______ _______ _______ _____ _____    ______ ____
ROOT
ATOM      1  CG  LYS A   1      92.294  60.857   8.040  0.00  0.00    -0.000 C 
ENDROOT
BRANCH   1   2
ATOM      2  CB  LYS A   1      93.459  59.885   8.088  0.00  0.00    +0.025 C 
BRANCH   2   3
ATOM      3  CA  LYS A   1      94.777  60.469   8.552  0.00  0.00    +0.133 C 
BRANCH   3   4
ATOM      4  N   LYS A   1      94.679  60.939   9.925  0.00  0.00    -0.239 NA
ATOM      5  H   LYS A   1      94.273  61.877  10.118  0.00  0.00    +0.142 HD
ENDBRANCH   3   4
BRANCH   3   6
ATOM      6  C   LYS A   1      95.178  61.534   7.563  0.00  0.00    +0.224 C 
ATOM      7  O   LYS A   1      94.944  62.724   7.790  0.00  0.00    -0.287 OA
ENDBRANCH   3   6
ENDBRANCH   2   3
ENDBRANCH   1   2
BRANCH   1   8
ATOM      8  CD  LYS A   1      91.273  60.190   7.149  0.00  0.00    -0.024 C 
BRANCH   8   9
ATOM      9  CE  LYS A   1      90.466  61.185   6.356  0.00  0.00    -0.086 C 
BRANCH   9  10
ATOM     10  NZ  LYS A   1      91.281  61.947   5.433  0.00  0.00    +0.380 N 
ATOM     11  HZ1 LYS A   1      92.006  62.471   5.964  0.00  0.00    -0.089 HD
ATOM     12  HZ2 LYS A   1      90.679  62.617   4.912  0.00  0.00    -0.089 HD
ATOM     13  HZ3 LYS A   1      91.741  61.299   4.762  0.00  0.00    -0.089 HD
ENDBRANCH   9  10
ENDBRANCH   8   9
ENDBRANCH   1   8
TORSDOF 7
REMARK  Name = ../refined-set-2016/1grp/1grp_pocket.pdb
REMARK  155 active torsions:
REMARK  status: ('A' for Active; 'I' for Inactive)
REMARK    1  A    between atoms: _1  and  _3
REMARK    2  A    between atoms: _3  and  _4
REMARK    3  A    between atoms: _3  and  _6
REMARK    4  A    between atoms: _6  and  _7
REMARK    5  A    between atoms: _7  and  _8
REMARK    6  A    between atoms: _8  and  _9
REMARK    7  A    between atoms: _9  and  _10
REMARK    8  A    between atoms: _14  and  _16
REMARK    9  A    between atoms: _16  and  _17
REMARK   10  A    between atoms: _16  and  _19
REMARK   11  A    between atoms: _19  and  _20
REMARK   12  A    between atoms: _23  and  _25
REMARK   13  A    between atoms: _25  and  _26
REMARK   14  A    between atoms: _25  and  _28
REMARK   15  A    between atoms: _28  and  _29
REMARK   16  A    between atoms: _32  and  _34
REMARK   17  A    between atoms: _34  and  _35
REMARK   18  A    between atoms: _34  and  _37
REMARK   19  A    between atoms: _37  and  _38
REMARK   20  A    between atoms: _41  and  _43
REMARK   21  A    between atoms: _43  and  _44
REMARK   22  A    between atoms: _43  and  _46
REMARK   23  A    between atoms: _46  and  _47
REMARK   24  A    between atoms: _47  and  _48
REMARK   25  A    between atoms: _48  and  _49
REMARK   26  A    between atoms: _58  and  _60
REMARK   27  A    between atoms: _60  and  _61
REMARK   28  A    between atoms: _60  and  _63
REMARK   29  A    between atoms: _63  and  _64
REMARK   30  A    between atoms: _66  and  _68
REMARK   31  A    between atoms: _68  and  _69
REMARK   32  A    between atoms: _68  and  _71
REMARK   33  A    between atoms: _71  and  _72
REMARK   34  A    between atoms: _75  and  _77
REMARK   35  A    between atoms: _77  and  _78
REMARK   36  A    between atoms: _77  and  _80
REMARK   37  A    between atoms: _80  and  _81
REMARK   38  A    between atoms: _84  and  _86
REMARK   39  A    between atoms: _86  and  _87
REMARK   40  A    between atoms: _86  and  _89
REMARK   41  A    between atoms: _92  and  _94
REMARK   42  A    between atoms: _94  and  _95
REMARK   43  A    between atoms: _98  and  _100
REMARK   44  A    between atoms: _100  and  _101
REMARK   45  A    between atoms: _100  and  _103
REMARK   46  A    between atoms: _103  and  _104
REMARK   47  A    between atoms: _104  and  _105
REMARK   48  A    between atoms: _105  and  _106
REMARK   49  A    between atoms: _115  and  _117
REMARK   50  A    between atoms: _117  and  _118
REMARK   51  A    between atoms: _117  and  _120
REMARK   52  A    between atoms: _122  and  _124
REMARK   53  A    between atoms: _124  and  _125
REMARK   54  A    between atoms: _124  and  _127
REMARK   55  A    between atoms: _127  and  _128
REMARK   56  A    between atoms: _128  and  _129
REMARK   57  A    between atoms: _129  and  _130
REMARK   58  A    between atoms: _139  and  _141
REMARK   59  A    between atoms: _141  and  _142
REMARK   60  A    between atoms: _141  and  _144
REMARK   61  A    between atoms: _144  and  _145
REMARK   62  A    between atoms: _145  and  _146
REMARK   63  A    between atoms: _146  and  _147
REMARK   64  A    between atoms: _156  and  _158
REMARK   65  A    between atoms: _158  and  _159
REMARK   66  A    between atoms: _158  and  _161
REMARK   67  A    between atoms: _161  and  _162
REMARK   68  A    between atoms: _167  and  _169
REMARK   69  A    between atoms: _169  and  _170
REMARK   70  A    between atoms: _169  and  _172
REMARK   71  A    between atoms: _172  and  _173
REMARK   72  A    between atoms: _178  and  _179
REMARK   73  A    between atoms: _181  and  _183
REMARK   74  A    between atoms: _183  and  _184
REMARK   75  A    between atoms: _183  and  _186
REMARK   76  A    between atoms: _186  and  _187
REMARK   77  A    between atoms: _192  and  _194
REMARK   78  A    between atoms: _194  and  _195
REMARK   79  A    between atoms: _194  and  _197
REMARK   80  A    between atoms: _197  and  _198
REMARK   81  A    between atoms: _201  and  _203
REMARK   82  A    between atoms: _203  and  _204
REMARK   83  A    between atoms: _206  and  _208
REMARK   84  A    between atoms: _208  and  _209
REMARK   85  A    between atoms: _208  and  _211
REMARK   86  A    between atoms: _211  and  _212
REMARK   87  A    between atoms: _212  and  _213
REMARK   88  A    between atoms: _215  and  _217
REMARK   89  A    between atoms: _217  and  _218
REMARK   90  A    between atoms: _217  and  _220
REMARK   91  A    between atoms: _220  and  _221
REMARK   92  A    between atoms: _226  and  _227
REMARK   93  A    between atoms: _229  and  _231
REMARK   94  A    between atoms: _231  and  _232
REMARK   95  A    between atoms: _231  and  _234
REMARK   96  A    between atoms: _234  and  _235
REMARK   97  A    between atoms: _237  and  _239
REMARK   98  A    between atoms: _239  and  _240
REMARK   99  A    between atoms: _239  and  _242
REMARK  100  A    between atoms: _242  and  _243
REMARK  101  A    between atoms: _246  and  _248
REMARK  102  A    between atoms: _248  and  _249
REMARK  103  A    between atoms: _248  and  _251
REMARK  104  A    between atoms: _251  and  _252
REMARK  105  A    between atoms: _257  and  _259
REMARK  106  A    between atoms: _259  and  _260
REMARK  107  A    between atoms: _259  and  _262
REMARK  108  A    between atoms: _262  and  _263
REMARK  109  A    between atoms: _263  and  _264
REMARK  110  A    between atoms: _267  and  _269
REMARK  111  A    between atoms: _269  and  _270
REMARK  112  A    between atoms: _273  and  _275
REMARK  113  A    between atoms: _275  and  _276
REMARK  114  A    between atoms: _275  and  _278
REMARK  115  A    between atoms: _278  and  _279
REMARK  116  A    between atoms: _282  and  _284
REMARK  117  A    between atoms: _284  and  _285
REMARK  118  A    between atoms: _284  and  _287
REMARK  119  A    between atoms: _287  and  _288
REMARK  120  A    between atoms: _293  and  _295
REMARK  121  A    between atoms: _295  and  _296
REMARK  122  A    between atoms: _298  and  _300
REMARK  123  A    between atoms: _300  and  _301
REMARK  124  A    between atoms: _300  and  _303
REMARK  125  A    between atoms: _303  and  _304
REMARK  126  A    between atoms: _307  and  _309
REMARK  127  A    between atoms: _309  and  _310
REMARK  128  A    between atoms: _309  and  _312
REMARK  129  A    between atoms: _312  and  _313
REMARK  130  A    between atoms: _313  and  _314
REMARK  131  A    between atoms: _314  and  _315
REMARK  132  A    between atoms: _315  and  _316
REMARK  133  A    between atoms: _320  and  _322
REMARK  134  A    between atoms: _322  and  _323
REMARK  135  A    between atoms: _322  and  _325
REMARK  136  A    between atoms: _325  and  _326
REMARK  137  A    between atoms: _331  and  _333
REMARK  138  A    between atoms: _333  and  _334
REMARK  139  A    between atoms: _333  and  _336
REMARK  140  A    between atoms: _336  and  _337
REMARK  141  A    between atoms: _340  and  _342
REMARK  142  A    between atoms: _342  and  _343
REMARK  143  A    between atoms: _342  and  _345
REMARK  144  A    between atoms: _345  and  _346
REMARK  145  A    between atoms: _346  and  _347
REMARK  146  A    between atoms: _349  and  _351
REMARK  147  A    between atoms: _351  and  _352
REMARK  148  A    between atoms: _351  and  _354
REMARK  149  A    between atoms: _354  and  _355
REMARK  150  A    between atoms: _358  and  _360
REMARK  151  A    between atoms: _360  and  _361
REMARK  152  A    between atoms: _360  and  _363
REMARK  153  A    between atoms: _363  and  _364
REMARK  154  A    between atoms: _367  and  _369
REMARK  155  A    between atoms: _369  and  _370
REMARK                            x       y       z     vdW  Elec       q    Type
REMARK                         _______ _______ _______ _____ _____    ______ ____
ROOT
ATOM      1  CA  THR A   2      91.057  58.408  -2.832  0.00  0.00    +0.176 C 
ENDROOT
BRANCH   1   4
ATOM      2  C   LEU A   1      91.398  59.566  -0.672  0.00  0.00    +0.238 C 
ATOM      3  O   LEU A   1      90.733  60.548  -1.026  0.00  0.00    -0.274 OA
ATOM      4  N   THR A   2      91.626  58.523  -1.490  0.00  0.00    -0.295 N 
ATOM      5  H   THR A   2      92.241  57.756  -1.149  0.00  0.00    +0.150 HD
BRANCH   2   6
ATOM      6  CA  LEU A   1      91.971  59.469   0.749  0.00  0.00    +0.145 C 
BRANCH   6   7
ATOM      7  N   LEU A   1      92.399  60.751   1.300  0.00  0.00    -0.238 NA
ATOM      8  H   LEU A   1      91.678  61.478   1.481  0.00  0.00    +0.142 HD
ENDBRANCH   6   7
BRANCH   6   9
ATOM      9  CB  LEU A   1      90.904  58.873   1.635  0.00  0.00    +0.026 C 
BRANCH   9  10
ATOM     10  CG  LEU A   1      91.158  57.886   2.749  0.00  0.00    +0.002 C 
ATOM     11  CD2 LEU A   1      90.052  58.100   3.766  0.00  0.00    +0.000 C 
ATOM     12  CD1 LEU A   1      92.537  58.041   3.350  0.00  0.00    +0.000 C 
ENDBRANCH   9  10
ENDBRANCH   6   9
ENDBRANCH   2   6
ENDBRANCH   1   4
BRANCH   1  13
ATOM     13  C   THR A   2      89.843  57.500  -2.769  0.00  0.00    +0.243 C 
ATOM     14  O   THR A   2      89.943  56.365  -2.299  0.00  0.00    -0.273 OA
ATOM     15  N   THR A   3      88.702  58.003  -3.232  0.00  0.00    -0.296 N 
ATOM     16  H   THR A   3      88.651  59.010  -3.485  0.00  0.00    +0.150 HD
BRANCH  15  17
ATOM     17  CA  THR A   3      87.521  57.161  -3.390  0.00  0.00    +0.164 C 
BRANCH  17  18
ATOM     18  CB  THR A   3      86.262  57.865  -2.917  0.00  0.00    +0.136 C 
ATOM     19  CG2 THR A   3      85.028  56.978  -3.036  0.00  0.00    +0.034 C 
BRANCH  18  20
ATOM     20  OG1 THR A   3      86.513  58.266  -1.572  0.00  0.00    -0.382 OA
ATOM     21  HG1 THR A   3      85.717  58.733  -1.214  0.00  0.00    +0.210 HD
ENDBRANCH  18  20
ENDBRANCH  17  18
BRANCH  17  22
ATOM     22  C   THR A   3      87.375  56.874  -4.881  0.00  0.00    +0.229 C 
ATOM     23  O   THR A   3      87.364  57.831  -5.653  0.00  0.00    -0.286 OA
ENDBRANCH  17  22
ENDBRANCH  15  17
ENDBRANCH   1  13
BRANCH   1  24
ATOM     24  CB  THR A   2      92.031  57.774  -3.850  0.00  0.00    +0.137 C 
ATOM     25  CG2 THR A   2      91.409  57.503  -5.224  0.00  0.00    +0.034 C 
BRANCH  24  26
ATOM     26  OG1 THR A   2      93.103  58.695  -3.982  0.00  0.00    -0.382 OA
ATOM     27  HG1 THR A   2      93.764  58.340  -4.627  0.00  0.00    +0.210 HD
ENDBRANCH  24  26
ENDBRANCH   1  24
TORSDOF 12
REMARK  Name = ../refined-set-2016/1grp/1grp_pocket.pdb
REMARK  155 active torsions:
REMARK  status: ('A' for Active; 'I' for Inactive)
REMARK    1  A    between atoms: _1  and  _3
REMARK    2  A    between atoms: _3  and  _4
REMARK    3  A    between atoms: _3  and  _6
REMARK    4  A    between atoms: _6  and  _7
REMARK    5  A    between atoms: _7  and  _8
REMARK    6  A    between atoms: _8  and  _9
REMARK    7  A    between atoms: _9  and  _10
REMARK    8  A    between atoms: _14  and  _16
REMARK    9  A    between atoms: _16  and  _17
REMARK   10  A    between atoms: _16  and  _19
REMARK   11  A    between atoms: _19  and  _20
REMARK   12  A    between atoms: _23  and  _25
REMARK   13  A    between atoms: _25  and  _26
REMARK   14  A    between atoms: _25  and  _28
REMARK   15  A    between atoms: _28  and  _29
REMARK   16  A    between atoms: _32  and  _34
REMARK   17  A    between atoms: _34  and  _35
REMARK   18  A    between atoms: _34  and  _37
REMARK   19  A    between atoms: _37  and  _38
REMARK   20  A    between atoms: _41  and  _43
REMARK   21  A    between atoms: _43  and  _44
REMARK   22  A    between atoms: _43  and  _46
REMARK   23  A    between atoms: _46  and  _47
REMARK   24  A    between atoms: _47  and  _48
REMARK   25  A    between atoms: _48  and  _49
REMARK   26  A    between atoms: _58  and  _60
REMARK   27  A    between atoms: _60  and  _61
REMARK   28  A    between atoms: _60  and  _63
REMARK   29  A    between atoms: _63  and  _64
REMARK   30  A    between atoms: _66  and  _68
REMARK   31  A    between atoms: _68  and  _69
REMARK   32  A    between atoms: _68  and  _71
REMARK   33  A    between atoms: _71  and  _72
REMARK   34  A    between atoms: _75  and  _77
REMARK   35  A    between atoms: _77  and  _78
REMARK   36  A    between atoms: _77  and  _80
REMARK   37  A    between atoms: _80  and  _81
REMARK   38  A    between atoms: _84  and  _86
REMARK   39  A    between atoms: _86  and  _87
REMARK   40  A    between atoms: _86  and  _89
REMARK   41  A    between atoms: _92  and  _94
REMARK   42  A    between atoms: _94  and  _95
REMARK   43  A    between atoms: _98  and  _100
REMARK   44  A    between atoms: _100  and  _101
REMARK   45  A    between atoms: _100  and  _103
REMARK   46  A    between atoms: _103  and  _104
REMARK   47  A    between atoms: _104  and  _105
REMARK   48  A    between atoms: _105  and  _106
REMARK   49  A    between atoms: _115  and  _117
REMARK   50  A    between atoms: _117  and  _118
REMARK   51  A    between atoms: _117  and  _120
REMARK   52  A    between atoms: _122  and  _124
REMARK   53  A    between atoms: _124  and  _125
REMARK   54  A    between atoms: _124  and  _127
REMARK   55  A    between atoms: _127  and  _128
REMARK   56  A    between atoms: _128  and  _129
REMARK   57  A    between atoms: _129  and  _130
REMARK   58  A    between atoms: _139  and  _141
REMARK   59  A    between atoms: _141  and  _142
REMARK   60  A    between atoms: _141  and  _144
REMARK   61  A    between atoms: _144  and  _145
REMARK   62  A    between atoms: _145  and  _146
REMARK   63  A    between atoms: _146  and  _147
REMARK   64  A    between atoms: _156  and  _158
REMARK   65  A    between atoms: _158  and  _159
REMARK   66  A    between atoms: _158  and  _161
REMARK   67  A    between atoms: _161  and  _162
REMARK   68  A    between atoms: _167  and  _169
REMARK   69  A    between atoms: _169  and  _170
REMARK   70  A    between atoms: _169  and  _172
REMARK   71  A    between atoms: _172  and  _173
REMARK   72  A    between atoms: _178  and  _179
REMARK   73  A    between atoms: _181  and  _183
REMARK   74  A    between atoms: _183  and  _184
REMARK   75  A    between atoms: _183  and  _186
REMARK   76  A    between atoms: _186  and  _187
REMARK   77  A    between atoms: _192  and  _194
REMARK   78  A    between atoms: _194  and  _195
REMARK   79  A    between atoms: _194  and  _197
REMARK   80  A    between atoms: _197  and  _198
REMARK   81  A    between atoms: _201  and  _203
REMARK   82  A    between atoms: _203  and  _204
REMARK   83  A    between atoms: _206  and  _208
REMARK   84  A    between atoms: _208  and  _209
REMARK   85  A    between atoms: _208  and  _211
REMARK   86  A    between atoms: _211  and  _212
REMARK   87  A    between atoms: _212  and  _213
REMARK   88  A    between atoms: _215  and  _217
REMARK   89  A    between atoms: _217  and  _218
REMARK   90  A    between atoms: _217  and  _220
REMARK   91  A    between atoms: _220  and  _221
REMARK   92  A    between atoms: _226  and  _227
REMARK   93  A    between atoms: _229  and  _231
REMARK   94  A    between atoms: _231  and  _232
REMARK   95  A    between atoms: _231  and  _234
REMARK   96  A    between atoms: _234  and  _235
REMARK   97  A    between atoms: _237  and  _239
REMARK   98  A    between atoms: _239  and  _240
REMARK   99  A    between atoms: _239  and  _242
REMARK  100  A    between atoms: _242  and  _243
REMARK  101  A    between atoms: _246  and  _248
REMARK  102  A    between atoms: _248  and  _249
REMARK  103  A    between atoms: _248  and  _251
REMARK  104  A    between atoms: _251  and  _252
REMARK  105  A    between atoms: _257  and  _259
REMARK  106  A    between atoms: _259  and  _260
REMARK  107  A    between atoms: _259  and  _262
REMARK  108  A    between atoms: _262  and  _263
REMARK  109  A    between atoms: _263  and  _264
REMARK  110  A    between atoms: _267  and  _269
REMARK  111  A    between atoms: _269  and  _270
REMARK  112  A    between atoms: _273  and  _275
REMARK  113  A    between atoms: _275  and  _276
REMARK  114  A    between atoms: _275  and  _278
REMARK  115  A    between atoms: _278  and  _279
REMARK  116  A    between atoms: _282  and  _284
REMARK  117  A    between atoms: _284  and  _285
REMARK  118  A    between atoms: _284  and  _287
REMARK  119  A    between atoms: _287  and  _288
REMARK  120  A    between atoms: _293  and  _295
REMARK  121  A    between atoms: _295  and  _296
REMARK  122  A    between atoms: _298  and  _300
REMARK  123  A    between atoms: _300  and  _301
REMARK  124  A    between atoms: _300  and  _303
REMARK  125  A    between atoms: _303  and  _304
REMARK  126  A    between atoms: _307  and  _309
REMARK  127  A    between atoms: _309  and  _310
REMARK  128  A    between atoms: _309  and  _312
REMARK  129  A    between atoms: _312  and  _313
REMARK  130  A    between atoms: _313  and  _314
REMARK  131  A    between atoms: _314  and  _315
REMARK  132  A    between atoms: _315  and  _316
REMARK  133  A    between atoms: _320  and  _322
REMARK  134  A    between atoms: _322  and  _323
REMARK  135  A    between atoms: _322  and  _325
REMARK  136  A    between atoms: _325  and  _326
REMARK  137  A    between atoms: _331  and  _333
REMARK  138  A    between atoms: _333  and  _334
REMARK  139  A    between atoms: _333  and  _336
REMARK  140  A    between atoms: _336  and  _337
REMARK  141  A    between atoms: _340  and  _342
REMARK  142  A    between atoms: _342  and  _343
REMARK  143  A    between atoms: _342  and  _345
REMARK  144  A    between atoms: _345  and  _346
REMARK  145  A    between atoms: _346  and  _347
REMARK  146  A    between atoms: _349  and  _351
REMARK  147  A    between atoms: _351  and  _352
REMARK  148  A    between atoms: _351  and  _354
REMARK  149  A    between atoms: _354  and  _355
REMARK  150  A    between atoms: _358  and  _360
REMARK  151  A    between atoms: _360  and  _361
REMARK  152  A    between atoms: _360  and  _363
REMARK  153  A    between atoms: _363  and  _364
REMARK  154  A    between atoms: _367  and  _369
REMARK  155  A    between atoms: _369  and  _370
REMARK                            x       y       z     vdW  Elec       q    Type
REMARK                         _______ _______ _______ _____ _____    ______ ____
ROOT
ATOM      1  CA  LEU A   3      85.302  56.676   1.992  0.00  0.00    +0.149 C 
ENDROOT
BRANCH   1   4
ATOM      2  C   SER A   2      83.430  57.906   1.022  0.00  0.00    +0.243 C 
ATOM      3  O   SER A   2      82.672  57.626   1.949  0.00  0.00    -0.273 OA
ATOM      4  N   LEU A   3      84.702  57.495   0.943  0.00  0.00    -0.297 N 
ATOM      5  H   LEU A   3      85.274  57.765   0.117  0.00  0.00    +0.150 HD
BRANCH   2   6
ATOM      6  CA  SER A   2      82.935  58.732  -0.140  0.00  0.00    +0.178 C 
BRANCH   6   9
ATOM      7  C   ARG A   1      81.632  56.880  -1.185  0.00  0.00    +0.238 C 
ATOM      8  O   ARG A   1      82.444  56.025  -0.827  0.00  0.00    -0.274 OA
ATOM      9  N   SER A   2      81.794  58.185  -0.898  0.00  0.00    -0.295 N 
ATOM     10  H   SER A   2      81.068  58.850  -1.232  0.00  0.00    +0.150 HD
BRANCH   7  11
ATOM     11  CA  ARG A   1      80.423  56.428  -1.993  0.00  0.00    +0.145 C 
BRANCH  11  12
ATOM     12  N   ARG A   1      80.623  55.071  -2.479  0.00  0.00    -0.238 NA
ATOM     13  H   ARG A   1      80.165  54.280  -1.983  0.00  0.00    +0.142 HD
ENDBRANCH  11  12
BRANCH  11  14
ATOM     14  CB  ARG A   1      79.166  56.452  -1.149  0.00  0.00    +0.030 C 
BRANCH  14  15
ATOM     15  CG  ARG A   1      77.929  56.253  -2.021  0.00  0.00    +0.045 C 
BRANCH  15  16
ATOM     16  CD  ARG A   1      76.672  56.360  -1.180  0.00  0.00    +0.174 C 
BRANCH  16  17
ATOM     17  NE  ARG A   1      75.477  56.484  -2.001  0.00  0.00    -0.265 N 
ATOM     18  HE  ARG A   1      74.905  55.633  -2.173  0.00  0.00    +0.259 HD
ATOM     19  CZ  ARG A   1      75.077  57.643  -2.547  0.00  0.00    +0.342 C 
ATOM     20  NH2 ARG A   1      75.752  58.792  -2.374  0.00  0.00    -0.292 N 
ATOM     21 HH21 ARG A   1      76.619  58.804  -1.799  0.00  0.00    +0.255 HD
ATOM     22 HH22 ARG A   1      75.408  59.669  -2.815  0.00  0.00    +0.255 HD
ATOM     23  NH1 ARG A   1      73.966  57.625  -3.284  0.00  0.00    -0.292 N 
ATOM     24 HH11 ARG A   1      73.445  56.735  -3.417  0.00  0.00    +0.255 HD
ATOM     25 HH12 ARG A   1      73.621  58.501  -3.725  0.00  0.00    +0.255 HD
ENDBRANCH  16  17
ENDBRANCH  15  16
ENDBRANCH  14  15
ENDBRANCH  11  14
ENDBRANCH   7  11
ENDBRANCH   6   9
BRANCH   6  26
ATOM     26  CB  SER A   2      82.583  60.100   0.401  0.00  0.00    +0.166 C 
BRANCH  26  27
ATOM     27  OG  SER A   2      83.617  60.664   1.188  0.00  0.00    -0.380 OA
ATOM     28  H   SER A   2      83.333  61.555   1.514  0.00  0.00    +0.211 HD
ENDBRANCH  26  27
ENDBRANCH   6  26
ENDBRANCH   2   6
ENDBRANCH   1   4
BRANCH   1  29
ATOM     29  C   LEU A   3      85.480  57.459   3.269  0.00  0.00    +0.241 C 
ATOM     30  O   LEU A   3      85.397  56.882   4.352  0.00  0.00    -0.273 OA
ATOM     31  N   LEU A   4      85.664  58.787   3.134  0.00  0.00    -0.297 N 
ATOM     32  H   LEU A   4      85.777  59.189   2.182  0.00  0.00    +0.150 HD
BRANCH  31  33
ATOM     33  CA  LEU A   4      85.709  59.673   4.289  0.00  0.00    +0.149 C 
BRANCH  33  34
ATOM     34  C   LEU A   4      84.341  59.818   4.959  0.00  0.00    +0.241 C 
ATOM     35  O   LEU A   4      84.270  59.711   6.183  0.00  0.00    -0.273 OA
ATOM     36  N   VAL A   5      83.251  60.079   4.226  0.00  0.00    -0.297 N 
ATOM     37  H   VAL A   5      83.364  60.269   3.210  0.00  0.00    +0.150 HD
BRANCH  36  38
ATOM     38  CA  VAL A   5      81.915  60.106   4.800  0.00  0.00    +0.149 C 
BRANCH  38  39
ATOM     39  C   VAL A   5      81.595  58.739   5.412  0.00  0.00    +0.241 C 
ATOM     40  O   VAL A   5      80.954  58.703   6.457  0.00  0.00    -0.273 OA
ATOM     41  N   ALA A   6      82.063  57.603   4.862  0.00  0.00    -0.298 N 
ATOM     42  H   ALA A   6      82.632  57.660   3.994  0.00  0.00    +0.150 HD
BRANCH  41  43
ATOM     43  CA  ALA A   6      81.793  56.288   5.452  0.00  0.00    +0.137 C 
ATOM     44  CB  ALA A   6      82.340  55.144   4.600  0.00  0.00    +0.030 C 
BRANCH  43  45
ATOM     45  C   ALA A   6      82.445  56.157   6.821  0.00  0.00    +0.227 C 
ATOM     46  O   ALA A   6      81.758  55.723   7.736  0.00  0.00    -0.286 OA
ENDBRANCH  43  45
ENDBRANCH  41  43
ENDBRANCH  38  39
BRANCH  38  47
ATOM     47  CB  VAL A   5      80.913  60.480   3.683  0.00  0.00    +0.027 C 
ATOM     48  CG2 VAL A   5      79.476  60.388   4.173  0.00  0.00    +0.002 C 
ATOM     49  CG1 VAL A   5      81.166  61.932   3.240  0.00  0.00    +0.002 C 
ENDBRANCH  38  47
ENDBRANCH  36  38
ENDBRANCH  33  34
BRANCH  33  50
ATOM     50  CB  LEU A   4      86.226  61.032   3.864  0.00  0.00    +0.029 C 
BRANCH  50  51
ATOM     51  CG  LEU A   4      86.148  62.156   4.874  0.00  0.00    +0.002 C 
ATOM     52  CD2 LEU A   4      86.825  61.766   6.185  0.00  0.00    +0.000 C 
ATOM     53  CD1 LEU A   4      86.750  63.372   4.250  0.00  0.00    +0.000 C 
ENDBRANCH  50  51
ENDBRANCH  33  50
ENDBRANCH  31  33
ENDBRANCH   1  29
BRANCH   1  54
ATOM     54  CB  LEU A   3      86.651  56.141   1.563  0.00  0.00    +0.029 C 
BRANCH  54  55
ATOM     55  CG  LEU A   3      86.631  55.124   0.442  0.00  0.00    +0.002 C 
ATOM     56  CD2 LEU A   3      85.865  53.884   0.846  0.00  0.00    +0.000 C 
ATOM     57  CD1 LEU A   3      88.048  54.741   0.125  0.00  0.00    +0.000 C 
ENDBRANCH  54  55
ENDBRANCH   1  54
TORSDOF 23
REMARK  Name = ../refined-set-2016/1grp/1grp_pocket.pdb
REMARK  155 active torsions:
REMARK  status: ('A' for Active; 'I' for Inactive)
REMARK    1  A    between atoms: _1  and  _3
REMARK    2  A    between atoms: _3  and  _4
REMARK    3  A    between atoms: _3  and  _6
REMARK    4  A    between atoms: _6  and  _7
REMARK    5  A    between atoms: _7  and  _8
REMARK    6  A    between atoms: _8  and  _9
REMARK    7  A    between atoms: _9  and  _10
REMARK    8  A    between atoms: _14  and  _16
REMARK    9  A    between atoms: _16  and  _17
REMARK   10  A    between atoms: _16  and  _19
REMARK   11  A    between atoms: _19  and  _20
REMARK   12  A    between atoms: _23  and  _25
REMARK   13  A    between atoms: _25  and  _26
REMARK   14  A    between atoms: _25  and  _28
REMARK   15  A    between atoms: _28  and  _29
REMARK   16  A    between atoms: _32  and  _34
REMARK   17  A    between atoms: _34  and  _35
REMARK   18  A    between atoms: _34  and  _37
REMARK   19  A    between atoms: _37  and  _38
REMARK   20  A    between atoms: _41  and  _43
REMARK   21  A    between atoms: _43  and  _44
REMARK   22  A    between atoms: _43  and  _46
REMARK   23  A    between atoms: _46  and  _47
REMARK   24  A    between atoms: _47  and  _48
REMARK   25  A    between atoms: _48  and  _49
REMARK   26  A    between atoms: _58  and  _60
REMARK   27  A    between atoms: _60  and  _61
REMARK   28  A    between atoms: _60  and  _63
REMARK   29  A    between atoms: _63  and  _64
REMARK   30  A    between atoms: _66  and  _68
REMARK   31  A    between atoms: _68  and  _69
REMARK   32  A    between atoms: _68  and  _71
REMARK   33  A    between atoms: _71  and  _72
REMARK   34  A    between atoms: _75  and  _77
REMARK   35  A    between atoms: _77  and  _78
REMARK   36  A    between atoms: _77  and  _80
REMARK   37  A    between atoms: _80  and  _81
REMARK   38  A    between atoms: _84  and  _86
REMARK   39  A    between atoms: _86  and  _87
REMARK   40  A    between atoms: _86  and  _89
REMARK   41  A    between atoms: _92  and  _94
REMARK   42  A    between atoms: _94  and  _95
REMARK   43  A    between atoms: _98  and  _100
REMARK   44  A    between atoms: _100  and  _101
REMARK   45  A    between atoms: _100  and  _103
REMARK   46  A    between atoms: _103  and  _104
REMARK   47  A    between atoms: _104  and  _105
REMARK   48  A    between atoms: _105  and  _106
REMARK   49  A    between atoms: _115  and  _117
REMARK   50  A    between atoms: _117  and  _118
REMARK   51  A    between atoms: _117  and  _120
REMARK   52  A    between atoms: _122  and  _124
REMARK   53  A    between atoms: _124  and  _125
REMARK   54  A    between atoms: _124  and  _127
REMARK   55  A    between atoms: _127  and  _128
REMARK   56  A    between atoms: _128  and  _129
REMARK   57  A    between atoms: _129  and  _130
REMARK   58  A    between atoms: _139  and  _141
REMARK   59  A    between atoms: _141  and  _142
REMARK   60  A    between atoms: _141  and  _144
REMARK   61  A    between atoms: _144  and  _145
REMARK   62  A    between atoms: _145  and  _146
REMARK   63  A    between atoms: _146  and  _147
REMARK   64  A    between atoms: _156  and  _158
REMARK   65  A    between atoms: _158  and  _159
REMARK   66  A    between atoms: _158  and  _161
REMARK   67  A    between atoms: _161  and  _162
REMARK   68  A    between atoms: _167  and  _169
REMARK   69  A    between atoms: _169  and  _170
REMARK   70  A    between atoms: _169  and  _172
REMARK   71  A    between atoms: _172  and  _173
REMARK   72  A    between atoms: _178  and  _179
REMARK   73  A    between atoms: _181  and  _183
REMARK   74  A    between atoms: _183  and  _184
REMARK   75  A    between atoms: _183  and  _186
REMARK   76  A    between atoms: _186  and  _187
REMARK   77  A    between atoms: _192  and  _194
REMARK   78  A    between atoms: _194  and  _195
REMARK   79  A    between atoms: _194  and  _197
REMARK   80  A    between atoms: _197  and  _198
REMARK   81  A    between atoms: _201  and  _203
REMARK   82  A    between atoms: _203  and  _204
REMARK   83  A    between atoms: _206  and  _208
REMARK   84  A    between atoms: _208  and  _209
REMARK   85  A    between atoms: _208  and  _211
REMARK   86  A    between atoms: _211  and  _212
REMARK   87  A    between atoms: _212  and  _213
REMARK   88  A    between atoms: _215  and  _217
REMARK   89  A    between atoms: _217  and  _218
REMARK   90  A    between atoms: _217  and  _220
REMARK   91  A    between atoms: _220  and  _221
REMARK   92  A    between atoms: _226  and  _227
REMARK   93  A    between atoms: _229  and  _231
REMARK   94  A    between atoms: _231  and  _232
REMARK   95  A    between atoms: _231  and  _234
REMARK   96  A    between atoms: _234  and  _235
REMARK   97  A    between atoms: _237  and  _239
REMARK   98  A    between atoms: _239  and  _240
REMARK   99  A    between atoms: _239  and  _242
REMARK  100  A    between atoms: _242  and  _243
REMARK  101  A    between atoms: _246  and  _248
REMARK  102  A    between atoms: _248  and  _249
REMARK  103  A    between atoms: _248  and  _251
REMARK  104  A    between atoms: _251  and  _252
REMARK  105  A    between atoms: _257  and  _259
REMARK  106  A    between atoms: _259  and  _260
REMARK  107  A    between atoms: _259  and  _262
REMARK  108  A    between atoms: _262  and  _263
REMARK  109  A    between atoms: _263  and  _264
REMARK  110  A    between atoms: _267  and  _269
REMARK  111  A    between atoms: _269  and  _270
REMARK  112  A    between atoms: _273  and  _275
REMARK  113  A    between atoms: _275  and  _276
REMARK  114  A    between atoms: _275  and  _278
REMARK  115  A    between atoms: _278  and  _279
REMARK  116  A    between atoms: _282  and  _284
REMARK  117  A    between atoms: _284  and  _285
REMARK  118  A    between atoms: _284  and  _287
REMARK  119  A    between atoms: _287  and  _288
REMARK  120  A    between atoms: _293  and  _295
REMARK  121  A    between atoms: _295  and  _296
REMARK  122  A    between atoms: _298  and  _300
REMARK  123  A    between atoms: _300  and  _301
REMARK  124  A    between atoms: _300  and  _303
REMARK  125  A    between atoms: _303  and  _304
REMARK  126  A    between atoms: _307  and  _309
REMARK  127  A    between atoms: _309  and  _310
REMARK  128  A    between atoms: _309  and  _312
REMARK  129  A    between atoms: _312  and  _313
REMARK  130  A    between atoms: _313  and  _314
REMARK  131  A    between atoms: _314  and  _315
REMARK  132  A    between atoms: _315  and  _316
REMARK  133  A    between atoms: _320  and  _322
REMARK  134  A    between atoms: _322  and  _323
REMARK  135  A    between atoms: _322  and  _325
REMARK  136  A    between atoms: _325  and  _326
REMARK  137  A    between atoms: _331  and  _333
REMARK  138  A    between atoms: _333  and  _334
REMARK  139  A    between atoms: _333  and  _336
REMARK  140  A    between atoms: _336  and  _337
REMARK  141  A    between atoms: _340  and  _342
REMARK  142  A    between atoms: _342  and  _343
REMARK  143  A    between atoms: _342  and  _345
REMARK  144  A    between atoms: _345  and  _346
REMARK  145  A    between atoms: _346  and  _347
REMARK  146  A    between atoms: _349  and  _351
REMARK  147  A    between atoms: _351  and  _352
REMARK  148  A    between atoms: _351  and  _354
REMARK  149  A    between atoms: _354  and  _355
REMARK  150  A    between atoms: _358  and  _360
REMARK  151  A    between atoms: _360  and  _361
REMARK  152  A    between atoms: _360  and  _363
REMARK  153  A    between atoms: _363  and  _364
REMARK  154  A    between atoms: _367  and  _369
REMARK  155  A    between atoms: _369  and  _370
REMARK                            x       y       z     vdW  Elec       q    Type
REMARK                         _______ _______ _______ _____ _____    ______ ____
ROOT
ATOM      1  NE  ARG A   1      84.271  63.719   7.689  0.00  0.00    -0.265 N 
ATOM      2  HE  ARG A   1      85.098  63.606   8.310  0.00  0.00    +0.259 HD
ATOM      3  CZ  ARG A   1      84.287  64.665   6.752  0.00  0.00    +0.342 C 
ATOM      4  NH2 ARG A   1      85.348  65.436   6.639  0.00  0.00    -0.292 N 
ATOM      5 HH21 ARG A   1      86.159  65.302   7.277  0.00  0.00    +0.255 HD
ATOM      6 HH22 ARG A   1      85.376  66.179   5.912  0.00  0.00    +0.255 HD
ATOM      7  NH1 ARG A   1      83.270  64.847   5.920  0.00  0.00    -0.292 N 
ATOM      8 HH11 ARG A   1      82.427  64.241   5.988  0.00  0.00    +0.255 HD
ATOM      9 HH12 ARG A   1      83.315  65.596   5.199  0.00  0.00    +0.255 HD
ENDROOT
BRANCH   1  10
ATOM     10  CD  ARG A   1      83.126  62.840   7.865  0.00  0.00    +0.174 C 
BRANCH  10  11
ATOM     11  CG  ARG A   1      83.516  61.609   8.657  0.00  0.00    +0.045 C 
BRANCH  11  12
ATOM     12  CB  ARG A   1      82.249  60.862   9.035  0.00  0.00    +0.029 C 
BRANCH  12  13
ATOM     13  CA  ARG A   1      82.529  59.571   9.782  0.00  0.00    +0.133 C 
BRANCH  13  14
ATOM     14  N   ARG A   1      83.277  58.655   8.929  0.00  0.00    -0.239 NA
ATOM     15  H   ARG A   1      83.547  58.985   7.981  0.00  0.00    +0.142 HD
ENDBRANCH  13  14
BRANCH  13  16
ATOM     16  C   ARG A   1      81.204  59.030  10.282  0.00  0.00    +0.224 C 
ATOM     17  O   ARG A   1      80.879  59.101  11.463  0.00  0.00    -0.287 OA
ENDBRANCH  13  16
ENDBRANCH  12  13
ENDBRANCH  11  12
ENDBRANCH  10  11
ENDBRANCH   1  10
TORSDOF 6
REMARK  Name = ../refined-set-2016/1grp/1grp_pocket.pdb
REMARK  155 active torsions:
REMARK  status: ('A' for Active; 'I' for Inactive)
REMARK    1  A    between atoms: _1  and  _3
REMARK    2  A    between atoms: _3  and  _4
REMARK    3  A    between atoms: _3  and  _6
REMARK    4  A    between atoms: _6  and  _7
REMARK    5  A    between atoms: _7  and  _8
REMARK    6  A    between atoms: _8  and  _9
REMARK    7  A    between atoms: _9  and  _10
REMARK    8  A    between atoms: _14  and  _16
REMARK    9  A    between atoms: _16  and  _17
REMARK   10  A    between atoms: _16  and  _19
REMARK   11  A    between atoms: _19  and  _20
REMARK   12  A    between atoms: _23  and  _25
REMARK   13  A    between atoms: _25  and  _26
REMARK   14  A    between atoms: _25  and  _28
REMARK   15  A    between atoms: _28  and  _29
REMARK   16  A    between atoms: _32  and  _34
REMARK   17  A    between atoms: _34  and  _35
REMARK   18  A    between atoms: _34  and  _37
REMARK   19  A    between atoms: _37  and  _38
REMARK   20  A    between atoms: _41  and  _43
REMARK   21  A    between atoms: _43  and  _44
REMARK   22  A    between atoms: _43  and  _46
REMARK   23  A    between atoms: _46  and  _47
REMARK   24  A    between atoms: _47  and  _48
REMARK   25  A    between atoms: _48  and  _49
REMARK   26  A    between atoms: _58  and  _60
REMARK   27  A    between atoms: _60  and  _61
REMARK   28  A    between atoms: _60  and  _63
REMARK   29  A    between atoms: _63  and  _64
REMARK   30  A    between atoms: _66  and  _68
REMARK   31  A    between atoms: _68  and  _69
REMARK   32  A    between atoms: _68  and  _71
REMARK   33  A    between atoms: _71  and  _72
REMARK   34  A    between atoms: _75  and  _77
REMARK   35  A    between atoms: _77  and  _78
REMARK   36  A    between atoms: _77  and  _80
REMARK   37  A    between atoms: _80  and  _81
REMARK   38  A    between atoms: _84  and  _86
REMARK   39  A    between atoms: _86  and  _87
REMARK   40  A    between atoms: _86  and  _89
REMARK   41  A    between atoms: _92  and  _94
REMARK   42  A    between atoms: _94  and  _95
REMARK   43  A    between atoms: _98  and  _100
REMARK   44  A    between atoms: _100  and  _101
REMARK   45  A    between atoms: _100  and  _103
REMARK   46  A    between atoms: _103  and  _104
REMARK   47  A    between atoms: _104  and  _105
REMARK   48  A    between atoms: _105  and  _106
REMARK   49  A    between atoms: _115  and  _117
REMARK   50  A    between atoms: _117  and  _118
REMARK   51  A    between atoms: _117  and  _120
REMARK   52  A    between atoms: _122  and  _124
REMARK   53  A    between atoms: _124  and  _125
REMARK   54  A    between atoms: _124  and  _127
REMARK   55  A    between atoms: _127  and  _128
REMARK   56  A    between atoms: _128  and  _129
REMARK   57  A    between atoms: _129  and  _130
REMARK   58  A    between atoms: _139  and  _141
REMARK   59  A    between atoms: _141  and  _142
REMARK   60  A    between atoms: _141  and  _144
REMARK   61  A    between atoms: _144  and  _145
REMARK   62  A    between atoms: _145  and  _146
REMARK   63  A    between atoms: _146  and  _147
REMARK   64  A    between atoms: _156  and  _158
REMARK   65  A    between atoms: _158  and  _159
REMARK   66  A    between atoms: _158  and  _161
REMARK   67  A    between atoms: _161  and  _162
REMARK   68  A    between atoms: _167  and  _169
REMARK   69  A    between atoms: _169  and  _170
REMARK   70  A    between atoms: _169  and  _172
REMARK   71  A    between atoms: _172  and  _173
REMARK   72  A    between atoms: _178  and  _179
REMARK   73  A    between atoms: _181  and  _183
REMARK   74  A    between atoms: _183  and  _184
REMARK   75  A    between atoms: _183  and  _186
REMARK   76  A    between atoms: _186  and  _187
REMARK   77  A    between atoms: _192  and  _194
REMARK   78  A    between atoms: _194  and  _195
REMARK   79  A    between atoms: _194  and  _197
REMARK   80  A    between atoms: _197  and  _198
REMARK   81  A    between atoms: _201  and  _203
REMARK   82  A    between atoms: _203  and  _204
REMARK   83  A    between atoms: _206  and  _208
REMARK   84  A    between atoms: _208  and  _209
REMARK   85  A    between atoms: _208  and  _211
REMARK   86  A    between atoms: _211  and  _212
REMARK   87  A    between atoms: _212  and  _213
REMARK   88  A    between atoms: _215  and  _217
REMARK   89  A    between atoms: _217  and  _218
REMARK   90  A    between atoms: _217  and  _220
REMARK   91  A    between atoms: _220  and  _221
REMARK   92  A    between atoms: _226  and  _227
REMARK   93  A    between atoms: _229  and  _231
REMARK   94  A    between atoms: _231  and  _232
REMARK   95  A    between atoms: _231  and  _234
REMARK   96  A    between atoms: _234  and  _235
REMARK   97  A    between atoms: _237  and  _239
REMARK   98  A    between atoms: _239  and  _240
REMARK   99  A    between atoms: _239  and  _242
REMARK  100  A    between atoms: _242  and  _243
REMARK  101  A    between atoms: _246  and  _248
REMARK  102  A    between atoms: _248  and  _249
REMARK  103  A    between atoms: _248  and  _251
REMARK  104  A    between atoms: _251  and  _252
REMARK  105  A    between atoms: _257  and  _259
REMARK  106  A    between atoms: _259  and  _260
REMARK  107  A    between atoms: _259  and  _262
REMARK  108  A    between atoms: _262  and  _263
REMARK  109  A    between atoms: _263  and  _264
REMARK  110  A    between atoms: _267  and  _269
REMARK  111  A    between atoms: _269  and  _270
REMARK  112  A    between atoms: _273  and  _275
REMARK  113  A    between atoms: _275  and  _276
REMARK  114  A    between atoms: _275  and  _278
REMARK  115  A    between atoms: _278  and  _279
REMARK  116  A    between atoms: _282  and  _284
REMARK  117  A    between atoms: _284  and  _285
REMARK  118  A    between atoms: _284  and  _287
REMARK  119  A    between atoms: _287  and  _288
REMARK  120  A    between atoms: _293  and  _295
REMARK  121  A    between atoms: _295  and  _296
REMARK  122  A    between atoms: _298  and  _300
REMARK  123  A    between atoms: _300  and  _301
REMARK  124  A    between atoms: _300  and  _303
REMARK  125  A    between atoms: _303  and  _304
REMARK  126  A    between atoms: _307  and  _309
REMARK  127  A    between atoms: _309  and  _310
REMARK  128  A    between atoms: _309  and  _312
REMARK  129  A    between atoms: _312  and  _313
REMARK  130  A    between atoms: _313  and  _314
REMARK  131  A    between atoms: _314  and  _315
REMARK  132  A    between atoms: _315  and  _316
REMARK  133  A    between atoms: _320  and  _322
REMARK  134  A    between atoms: _322  and  _323
REMARK  135  A    between atoms: _322  and  _325
REMARK  136  A    between atoms: _325  and  _326
REMARK  137  A    between atoms: _331  and  _333
REMARK  138  A    between atoms: _333  and  _334
REMARK  139  A    between atoms: _333  and  _336
REMARK  140  A    between atoms: _336  and  _337
REMARK  141  A    between atoms: _340  and  _342
REMARK  142  A    between atoms: _342  and  _343
REMARK  143  A    between atoms: _342  and  _345
REMARK  144  A    between atoms: _345  and  _346
REMARK  145  A    between atoms: _346  and  _347
REMARK  146  A    between atoms: _349  and  _351
REMARK  147  A    between atoms: _351  and  _352
REMARK  148  A    between atoms: _351  and  _354
REMARK  149  A    between atoms: _354  and  _355
REMARK  150  A    between atoms: _358  and  _360
REMARK  151  A    between atoms: _360  and  _361
REMARK  152  A    between atoms: _360  and  _363
REMARK  153  A    between atoms: _363  and  _364
REMARK  154  A    between atoms: _367  and  _369
REMARK  155  A    between atoms: _369  and  _370
REMARK                            x       y       z     vdW  Elec       q    Type
REMARK                         _______ _______ _______ _____ _____    ______ ____
ROOT
ATOM      1  CA  CYS A   1      83.419  68.017  12.260  0.00  0.00    +0.145 C 
ENDROOT
BRANCH   1   2
ATOM      2  N   CYS A   1      82.320  67.678  13.127  0.00  0.00    -0.238 NA
ATOM      3  H   CYS A   1      81.396  68.126  12.966  0.00  0.00    +0.142 HD
ENDBRANCH   1   2
BRANCH   1   4
ATOM      4  C   CYS A   1      83.843  69.394  12.744  0.00  0.00    +0.225 C 
ATOM      5  O   CYS A   1      83.172  70.408  12.551  0.00  0.00    -0.287 OA
ENDBRANCH   1   4
BRANCH   1   6
ATOM      6  CB  CYS A   1      82.921  68.053  10.850  0.00  0.00    +0.094 C 
ATOM      7  SG  CYS A   1      84.226  68.362   9.655  0.00  0.00    -0.080 S 
ENDBRANCH   1   6
TORSDOF 3
REMARK  Name = ../refined-set-2016/1grp/1grp_pocket.pdb
REMARK  155 active torsions:
REMARK  status: ('A' for Active; 'I' for Inactive)
REMARK    1  A    between atoms: _1  and  _3
REMARK    2  A    between atoms: _3  and  _4
REMARK    3  A    between atoms: _3  and  _6
REMARK    4  A    between atoms: _6  and  _7
REMARK    5  A    between atoms: _7  and  _8
REMARK    6  A    between atoms: _8  and  _9
REMARK    7  A    between atoms: _9  and  _10
REMARK    8  A    between atoms: _14  and  _16
REMARK    9  A    between atoms: _16  and  _17
REMARK   10  A    between atoms: _16  and  _19
REMARK   11  A    between atoms: _19  and  _20
REMARK   12  A    between atoms: _23  and  _25
REMARK   13  A    between atoms: _25  and  _26
REMARK   14  A    between atoms: _25  and  _28
REMARK   15  A    between atoms: _28  and  _29
REMARK   16  A    between atoms: _32  and  _34
REMARK   17  A    between atoms: _34  and  _35
REMARK   18  A    between atoms: _34  and  _37
REMARK   19  A    between atoms: _37  and  _38
REMARK   20  A    between atoms: _41  and  _43
REMARK   21  A    between atoms: _43  and  _44
REMARK   22  A    between atoms: _43  and  _46
REMARK   23  A    between atoms: _46  and  _47
REMARK   24  A    between atoms: _47  and  _48
REMARK   25  A    between atoms: _48  and  _49
REMARK   26  A    between atoms: _58  and  _60
REMARK   27  A    between atoms: _60  and  _61
REMARK   28  A    between atoms: _60  and  _63
REMARK   29  A    between atoms: _63  and  _64
REMARK   30  A    between atoms: _66  and  _68
REMARK   31  A    between atoms: _68  and  _69
REMARK   32  A    between atoms: _68  and  _71
REMARK   33  A    between atoms: _71  and  _72
REMARK   34  A    between atoms: _75  and  _77
REMARK   35  A    between atoms: _77  and  _78
REMARK   36  A    between atoms: _77  and  _80
REMARK   37  A    between atoms: _80  and  _81
REMARK   38  A    between atoms: _84  and  _86
REMARK   39  A    between atoms: _86  and  _87
REMARK   40  A    between atoms: _86  and  _89
REMARK   41  A    between atoms: _92  and  _94
REMARK   42  A    between atoms: _94  and  _95
REMARK   43  A    between atoms: _98  and  _100
REMARK   44  A    between atoms: _100  and  _101
REMARK   45  A    between atoms: _100  and  _103
REMARK   46  A    between atoms: _103  and  _104
REMARK   47  A    between atoms: _104  and  _105
REMARK   48  A    between atoms: _105  and  _106
REMARK   49  A    between atoms: _115  and  _117
REMARK   50  A    between atoms: _117  and  _118
REMARK   51  A    between atoms: _117  and  _120
REMARK   52  A    between atoms: _122  and  _124
REMARK   53  A    between atoms: _124  and  _125
REMARK   54  A    between atoms: _124  and  _127
REMARK   55  A    between atoms: _127  and  _128
REMARK   56  A    between atoms: _128  and  _129
REMARK   57  A    between atoms: _129  and  _130
REMARK   58  A    between atoms: _139  and  _141
REMARK   59  A    between atoms: _141  and  _142
REMARK   60  A    between atoms: _141  and  _144
REMARK   61  A    between atoms: _144  and  _145
REMARK   62  A    between atoms: _145  and  _146
REMARK   63  A    between atoms: _146  and  _147
REMARK   64  A    between atoms: _156  and  _158
REMARK   65  A    between atoms: _158  and  _159
REMARK   66  A    between atoms: _158  and  _161
REMARK   67  A    between atoms: _161  and  _162
REMARK   68  A    between atoms: _167  and  _169
REMARK   69  A    between atoms: _169  and  _170
REMARK   70  A    between atoms: _169  and  _172
REMARK   71  A    between atoms: _172  and  _173
REMARK   72  A    between atoms: _178  and  _179
REMARK   73  A    between atoms: _181  and  _183
REMARK   74  A    between atoms: _183  and  _184
REMARK   75  A    between atoms: _183  and  _186
REMARK   76  A    between atoms: _186  and  _187
REMARK   77  A    between atoms: _192  and  _194
REMARK   78  A    between atoms: _194  and  _195
REMARK   79  A    between atoms: _194  and  _197
REMARK   80  A    between atoms: _197  and  _198
REMARK   81  A    between atoms: _201  and  _203
REMARK   82  A    between atoms: _203  and  _204
REMARK   83  A    between atoms: _206  and  _208
REMARK   84  A    between atoms: _208  and  _209
REMARK   85  A    between atoms: _208  and  _211
REMARK   86  A    between atoms: _211  and  _212
REMARK   87  A    between atoms: _212  and  _213
REMARK   88  A    between atoms: _215  and  _217
REMARK   89  A    between atoms: _217  and  _218
REMARK   90  A    between atoms: _217  and  _220
REMARK   91  A    between atoms: _220  and  _221
REMARK   92  A    between atoms: _226  and  _227
REMARK   93  A    between atoms: _229  and  _231
REMARK   94  A    between atoms: _231  and  _232
REMARK   95  A    between atoms: _231  and  _234
REMARK   96  A    between atoms: _234  and  _235
REMARK   97  A    between atoms: _237  and  _239
REMARK   98  A    between atoms: _239  and  _240
REMARK   99  A    between atoms: _239  and  _242
REMARK  100  A    between atoms: _242  and  _243
REMARK  101  A    between atoms: _246  and  _248
REMARK  102  A    between atoms: _248  and  _249
REMARK  103  A    between atoms: _248  and  _251
REMARK  104  A    between atoms: _251  and  _252
REMARK  105  A    between atoms: _257  and  _259
REMARK  106  A    between atoms: _259  and  _260
REMARK  107  A    between atoms: _259  and  _262
REMARK  108  A    between atoms: _262  and  _263
REMARK  109  A    between atoms: _263  and  _264
REMARK  110  A    between atoms: _267  and  _269
REMARK  111  A    between atoms: _269  and  _270
REMARK  112  A    between atoms: _273  and  _275
REMARK  113  A    between atoms: _275  and  _276
REMARK  114  A    between atoms: _275  and  _278
REMARK  115  A    between atoms: _278  and  _279
REMARK  116  A    between atoms: _282  and  _284
REMARK  117  A    between atoms: _284  and  _285
REMARK  118  A    between atoms: _284  and  _287
REMARK  119  A    between atoms: _287  and  _288
REMARK  120  A    between atoms: _293  and  _295
REMARK  121  A    between atoms: _295  and  _296
REMARK  122  A    between atoms: _298  and  _300
REMARK  123  A    between atoms: _300  and  _301
REMARK  124  A    between atoms: _300  and  _303
REMARK  125  A    between atoms: _303  and  _304
REMARK  126  A    between atoms: _307  and  _309
REMARK  127  A    between atoms: _309  and  _310
REMARK  128  A    between atoms: _309  and  _312
REMARK  129  A    between atoms: _312  and  _313
REMARK  130  A    between atoms: _313  and  _314
REMARK  131  A    between atoms: _314  and  _315
REMARK  132  A    between atoms: _315  and  _316
REMARK  133  A    between atoms: _320  and  _322
REMARK  134  A    between atoms: _322  and  _323
REMARK  135  A    between atoms: _322  and  _325
REMARK  136  A    between atoms: _325  and  _326
REMARK  137  A    between atoms: _331  and  _333
REMARK  138  A    between atoms: _333  and  _334
REMARK  139  A    between atoms: _333  and  _336
REMARK  140  A    between atoms: _336  and  _337
REMARK  141  A    between atoms: _340  and  _342
REMARK  142  A    between atoms: _342  and  _343
REMARK  143  A    between atoms: _342  and  _345
REMARK  144  A    between atoms: _345  and  _346
REMARK  145  A    between atoms: _346  and  _347
REMARK  146  A    between atoms: _349  and  _351
REMARK  147  A    between atoms: _351  and  _352
REMARK  148  A    between atoms: _351  and  _354
REMARK  149  A    between atoms: _354  and  _355
REMARK  150  A    between atoms: _358  and  _360
REMARK  151  A    between atoms: _360  and  _361
REMARK  152  A    between atoms: _360  and  _363
REMARK  153  A    between atoms: _363  and  _364
REMARK  154  A    between atoms: _367  and  _369
REMARK  155  A    between atoms: _369  and  _370
REMARK                            x       y       z     vdW  Elec       q    Type
REMARK                         _______ _______ _______ _____ _____    ______ ____
ROOT
ATOM      1  NE  ARG A   1      87.003  70.340   7.885  0.00  0.00    -0.265 N 
ATOM      2  HE  ARG A   1      87.722  69.756   8.359  0.00  0.00    +0.259 HD
ATOM      3  CZ  ARG A   1      86.461  69.927   6.738  0.00  0.00    +0.342 C 
ATOM      4  NH2 ARG A   1      86.854  68.776   6.238  0.00  0.00    -0.292 N 
ATOM      5 HH21 ARG A   1      87.571  68.211   6.735  0.00  0.00    +0.255 HD
ATOM      6 HH22 ARG A   1      86.447  68.431   5.345  0.00  0.00    +0.255 HD
ATOM      7  NH1 ARG A   1      85.517  70.614   6.095  0.00  0.00    -0.292 N 
ATOM      8 HH11 ARG A   1      85.172  71.514   6.485  0.00  0.00    +0.255 HD
ATOM      9 HH12 ARG A   1      85.125  70.250   5.203  0.00  0.00    +0.255 HD
ENDROOT
BRANCH   1  10
ATOM     10  CD  ARG A   1      86.594  71.597   8.471  0.00  0.00    +0.174 C 
BRANCH  10  11
ATOM     11  CG  ARG A   1      87.025  71.697   9.876  0.00  0.00    +0.045 C 
BRANCH  11  12
ATOM     12  CB  ARG A   1      86.781  73.099  10.437  0.00  0.00    +0.029 C 
BRANCH  12  13
ATOM     13  CA  ARG A   1      87.310  73.087  11.884  0.00  0.00    +0.133 C 
BRANCH  13  14
ATOM     14  N   ARG A   1      86.361  72.420  12.753  0.00  0.00    -0.239 NA
ATOM     15  H   ARG A   1      85.505  72.930  13.052  0.00  0.00    +0.142 HD
ENDBRANCH  13  14
BRANCH  13  16
ATOM     16  C   ARG A   1      87.595  74.500  12.357  0.00  0.00    +0.224 C 
ATOM     17  O   ARG A   1      86.817  75.426  12.155  0.00  0.00    -0.287 OA
ENDBRANCH  13  16
ENDBRANCH  12  13
ENDBRANCH  11  12
ENDBRANCH  10  11
ENDBRANCH   1  10
TORSDOF 6
REMARK  Name = ../refined-set-2016/1grp/1grp_pocket.pdb
REMARK  155 active torsions:
REMARK  status: ('A' for Active; 'I' for Inactive)
REMARK    1  A    between atoms: _1  and  _3
REMARK    2  A    between atoms: _3  and  _4
REMARK    3  A    between atoms: _3  and  _6
REMARK    4  A    between atoms: _6  and  _7
REMARK    5  A    between atoms: _7  and  _8
REMARK    6  A    between atoms: _8  and  _9
REMARK    7  A    between atoms: _9  and  _10
REMARK    8  A    between atoms: _14  and  _16
REMARK    9  A    between atoms: _16  and  _17
REMARK   10  A    between atoms: _16  and  _19
REMARK   11  A    between atoms: _19  and  _20
REMARK   12  A    between atoms: _23  and  _25
REMARK   13  A    between atoms: _25  and  _26
REMARK   14  A    between atoms: _25  and  _28
REMARK   15  A    between atoms: _28  and  _29
REMARK   16  A    between atoms: _32  and  _34
REMARK   17  A    between atoms: _34  and  _35
REMARK   18  A    between atoms: _34  and  _37
REMARK   19  A    between atoms: _37  and  _38
REMARK   20  A    between atoms: _41  and  _43
REMARK   21  A    between atoms: _43  and  _44
REMARK   22  A    between atoms: _43  and  _46
REMARK   23  A    between atoms: _46  and  _47
REMARK   24  A    between atoms: _47  and  _48
REMARK   25  A    between atoms: _48  and  _49
REMARK   26  A    between atoms: _58  and  _60
REMARK   27  A    between atoms: _60  and  _61
REMARK   28  A    between atoms: _60  and  _63
REMARK   29  A    between atoms: _63  and  _64
REMARK   30  A    between atoms: _66  and  _68
REMARK   31  A    between atoms: _68  and  _69
REMARK   32  A    between atoms: _68  and  _71
REMARK   33  A    between atoms: _71  and  _72
REMARK   34  A    between atoms: _75  and  _77
REMARK   35  A    between atoms: _77  and  _78
REMARK   36  A    between atoms: _77  and  _80
REMARK   37  A    between atoms: _80  and  _81
REMARK   38  A    between atoms: _84  and  _86
REMARK   39  A    between atoms: _86  and  _87
REMARK   40  A    between atoms: _86  and  _89
REMARK   41  A    between atoms: _92  and  _94
REMARK   42  A    between atoms: _94  and  _95
REMARK   43  A    between atoms: _98  and  _100
REMARK   44  A    between atoms: _100  and  _101
REMARK   45  A    between atoms: _100  and  _103
REMARK   46  A    between atoms: _103  and  _104
REMARK   47  A    between atoms: _104  and  _105
REMARK   48  A    between atoms: _105  and  _106
REMARK   49  A    between atoms: _115  and  _117
REMARK   50  A    between atoms: _117  and  _118
REMARK   51  A    between atoms: _117  and  _120
REMARK   52  A    between atoms: _122  and  _124
REMARK   53  A    between atoms: _124  and  _125
REMARK   54  A    between atoms: _124  and  _127
REMARK   55  A    between atoms: _127  and  _128
REMARK   56  A    between atoms: _128  and  _129
REMARK   57  A    between atoms: _129  and  _130
REMARK   58  A    between atoms: _139  and  _141
REMARK   59  A    between atoms: _141  and  _142
REMARK   60  A    between atoms: _141  and  _144
REMARK   61  A    between atoms: _144  and  _145
REMARK   62  A    between atoms: _145  and  _146
REMARK   63  A    between atoms: _146  and  _147
REMARK   64  A    between atoms: _156  and  _158
REMARK   65  A    between atoms: _158  and  _159
REMARK   66  A    between atoms: _158  and  _161
REMARK   67  A    between atoms: _161  and  _162
REMARK   68  A    between atoms: _167  and  _169
REMARK   69  A    between atoms: _169  and  _170
REMARK   70  A    between atoms: _169  and  _172
REMARK   71  A    between atoms: _172  and  _173
REMARK   72  A    between atoms: _178  and  _179
REMARK   73  A    between atoms: _181  and  _183
REMARK   74  A    between atoms: _183  and  _184
REMARK   75  A    between atoms: _183  and  _186
REMARK   76  A    between atoms: _186  and  _187
REMARK   77  A    between atoms: _192  and  _194
REMARK   78  A    between atoms: _194  and  _195
REMARK   79  A    between atoms: _194  and  _197
REMARK   80  A    between atoms: _197  and  _198
REMARK   81  A    between atoms: _201  and  _203
REMARK   82  A    between atoms: _203  and  _204
REMARK   83  A    between atoms: _206  and  _208
REMARK   84  A    between atoms: _208  and  _209
REMARK   85  A    between atoms: _208  and  _211
REMARK   86  A    between atoms: _211  and  _212
REMARK   87  A    between atoms: _212  and  _213
REMARK   88  A    between atoms: _215  and  _217
REMARK   89  A    between atoms: _217  and  _218
REMARK   90  A    between atoms: _217  and  _220
REMARK   91  A    between atoms: _220  and  _221
REMARK   92  A    between atoms: _226  and  _227
REMARK   93  A    between atoms: _229  and  _231
REMARK   94  A    between atoms: _231  and  _232
REMARK   95  A    between atoms: _231  and  _234
REMARK   96  A    between atoms: _234  and  _235
REMARK   97  A    between atoms: _237  and  _239
REMARK   98  A    between atoms: _239  and  _240
REMARK   99  A    between atoms: _239  and  _242
REMARK  100  A    between atoms: _242  and  _243
REMARK  101  A    between atoms: _246  and  _248
REMARK  102  A    between atoms: _248  and  _249
REMARK  103  A    between atoms: _248  and  _251
REMARK  104  A    between atoms: _251  and  _252
REMARK  105  A    between atoms: _257  and  _259
REMARK  106  A    between atoms: _259  and  _260
REMARK  107  A    between atoms: _259  and  _262
REMARK  108  A    between atoms: _262  and  _263
REMARK  109  A    between atoms: _263  and  _264
REMARK  110  A    between atoms: _267  and  _269
REMARK  111  A    between atoms: _269  and  _270
REMARK  112  A    between atoms: _273  and  _275
REMARK  113  A    between atoms: _275  and  _276
REMARK  114  A    between atoms: _275  and  _278
REMARK  115  A    between atoms: _278  and  _279
REMARK  116  A    between atoms: _282  and  _284
REMARK  117  A    between atoms: _284  and  _285
REMARK  118  A    between atoms: _284  and  _287
REMARK  119  A    between atoms: _287  and  _288
REMARK  120  A    between atoms: _293  and  _295
REMARK  121  A    between atoms: _295  and  _296
REMARK  122  A    between atoms: _298  and  _300
REMARK  123  A    between atoms: _300  and  _301
REMARK  124  A    between atoms: _300  and  _303
REMARK  125  A    between atoms: _303  and  _304
REMARK  126  A    between atoms: _307  and  _309
REMARK  127  A    between atoms: _309  and  _310
REMARK  128  A    between atoms: _309  and  _312
REMARK  129  A    between atoms: _312  and  _313
REMARK  130  A    between atoms: _313  and  _314
REMARK  131  A    between atoms: _314  and  _315
REMARK  132  A    between atoms: _315  and  _316
REMARK  133  A    between atoms: _320  and  _322
REMARK  134  A    between atoms: _322  and  _323
REMARK  135  A    between atoms: _322  and  _325
REMARK  136  A    between atoms: _325  and  _326
REMARK  137  A    between atoms: _331  and  _333
REMARK  138  A    between atoms: _333  and  _334
REMARK  139  A    between atoms: _333  and  _336
REMARK  140  A    between atoms: _336  and  _337
REMARK  141  A    between atoms: _340  and  _342
REMARK  142  A    between atoms: _342  and  _343
REMARK  143  A    between atoms: _342  and  _345
REMARK  144  A    between atoms: _345  and  _346
REMARK  145  A    between atoms: _346  and  _347
REMARK  146  A    between atoms: _349  and  _351
REMARK  147  A    between atoms: _351  and  _352
REMARK  148  A    between atoms: _351  and  _354
REMARK  149  A    between atoms: _354  and  _355
REMARK  150  A    between atoms: _358  and  _360
REMARK  151  A    between atoms: _360  and  _361
REMARK  152  A    between atoms: _360  and  _363
REMARK  153  A    between atoms: _363  and  _364
REMARK  154  A    between atoms: _367  and  _369
REMARK  155  A    between atoms: _369  and  _370
REMARK                            x       y       z     vdW  Elec       q    Type
REMARK                         _______ _______ _______ _____ _____    ______ ____
ROOT
ATOM      1  NE  ARG A   1      80.614  69.151   6.976  0.00  0.00    -0.265 N 
ATOM      2  HE  ARG A   1      79.590  68.997   6.882  0.00  0.00    +0.259 HD
ATOM      3  CZ  ARG A   1      81.428  68.676   6.036  0.00  0.00    +0.342 C 
ATOM      4  NH2 ARG A   1      82.748  68.831   6.105  0.00  0.00    -0.292 N 
ATOM      5 HH21 ARG A   1      83.171  69.335   6.910  0.00  0.00    +0.255 HD
ATOM      6 HH22 ARG A   1      83.357  68.448   5.354  0.00  0.00    +0.255 HD
ATOM      7  NH1 ARG A   1      80.886  68.037   5.007  0.00  0.00    -0.292 N 
ATOM      8 HH11 ARG A   1      79.854  67.920   4.953  0.00  0.00    +0.255 HD
ATOM      9 HH12 ARG A   1      81.493  67.653   4.255  0.00  0.00    +0.255 HD
ENDROOT
BRANCH   1  10
ATOM     10  CD  ARG A   1      81.113  69.874   8.123  0.00  0.00    +0.174 C 
BRANCH  10  11
ATOM     11  CG  ARG A   1      79.975  70.300   8.997  0.00  0.00    +0.045 C 
BRANCH  11  12
ATOM     12  CB  ARG A   1      80.547  71.135  10.121  0.00  0.00    +0.029 C 
BRANCH  12  13
ATOM     13  CA  ARG A   1      79.654  71.237  11.355  0.00  0.00    +0.133 C 
BRANCH  13  14
ATOM     14  N   ARG A   1      80.454  71.725  12.470  0.00  0.00    -0.239 NA
ATOM     15  H   ARG A   1      81.397  71.314  12.622  0.00  0.00    +0.142 HD
ENDBRANCH  13  14
BRANCH  13  16
ATOM     16  C   ARG A   1      79.093  69.870  11.728  0.00  0.00    +0.224 C 
ATOM     17  O   ARG A   1      79.843  68.956  12.099  0.00  0.00    -0.287 OA
ENDBRANCH  13  16
ENDBRANCH  12  13
ENDBRANCH  11  12
ENDBRANCH  10  11
ENDBRANCH   1  10
TORSDOF 6
REMARK  Name = ../refined-set-2016/1grp/1grp_pocket.pdb
REMARK  155 active torsions:
REMARK  status: ('A' for Active; 'I' for Inactive)
REMARK    1  A    between atoms: _1  and  _3
REMARK    2  A    between atoms: _3  and  _4
REMARK    3  A    between atoms: _3  and  _6
REMARK    4  A    between atoms: _6  and  _7
REMARK    5  A    between atoms: _7  and  _8
REMARK    6  A    between atoms: _8  and  _9
REMARK    7  A    between atoms: _9  and  _10
REMARK    8  A    between atoms: _14  and  _16
REMARK    9  A    between atoms: _16  and  _17
REMARK   10  A    between atoms: _16  and  _19
REMARK   11  A    between atoms: _19  and  _20
REMARK   12  A    between atoms: _23  and  _25
REMARK   13  A    between atoms: _25  and  _26
REMARK   14  A    between atoms: _25  and  _28
REMARK   15  A    between atoms: _28  and  _29
REMARK   16  A    between atoms: _32  and  _34
REMARK   17  A    between atoms: _34  and  _35
REMARK   18  A    between atoms: _34  and  _37
REMARK   19  A    between atoms: _37  and  _38
REMARK   20  A    between atoms: _41  and  _43
REMARK   21  A    between atoms: _43  and  _44
REMARK   22  A    between atoms: _43  and  _46
REMARK   23  A    between atoms: _46  and  _47
REMARK   24  A    between atoms: _47  and  _48
REMARK   25  A    between atoms: _48  and  _49
REMARK   26  A    between atoms: _58  and  _60
REMARK   27  A    between atoms: _60  and  _61
REMARK   28  A    between atoms: _60  and  _63
REMARK   29  A    between atoms: _63  and  _64
REMARK   30  A    between atoms: _66  and  _68
REMARK   31  A    between atoms: _68  and  _69
REMARK   32  A    between atoms: _68  and  _71
REMARK   33  A    between atoms: _71  and  _72
REMARK   34  A    between atoms: _75  and  _77
REMARK   35  A    between atoms: _77  and  _78
REMARK   36  A    between atoms: _77  and  _80
REMARK   37  A    between atoms: _80  and  _81
REMARK   38  A    between atoms: _84  and  _86
REMARK   39  A    between atoms: _86  and  _87
REMARK   40  A    between atoms: _86  and  _89
REMARK   41  A    between atoms: _92  and  _94
REMARK   42  A    between atoms: _94  and  _95
REMARK   43  A    between atoms: _98  and  _100
REMARK   44  A    between atoms: _100  and  _101
REMARK   45  A    between atoms: _100  and  _103
REMARK   46  A    between atoms: _103  and  _104
REMARK   47  A    between atoms: _104  and  _105
REMARK   48  A    between atoms: _105  and  _106
REMARK   49  A    between atoms: _115  and  _117
REMARK   50  A    between atoms: _117  and  _118
REMARK   51  A    between atoms: _117  and  _120
REMARK   52  A    between atoms: _122  and  _124
REMARK   53  A    between atoms: _124  and  _125
REMARK   54  A    between atoms: _124  and  _127
REMARK   55  A    between atoms: _127  and  _128
REMARK   56  A    between atoms: _128  and  _129
REMARK   57  A    between atoms: _129  and  _130
REMARK   58  A    between atoms: _139  and  _141
REMARK   59  A    between atoms: _141  and  _142
REMARK   60  A    between atoms: _141  and  _144
REMARK   61  A    between atoms: _144  and  _145
REMARK   62  A    between atoms: _145  and  _146
REMARK   63  A    between atoms: _146  and  _147
REMARK   64  A    between atoms: _156  and  _158
REMARK   65  A    between atoms: _158  and  _159
REMARK   66  A    between atoms: _158  and  _161
REMARK   67  A    between atoms: _161  and  _162
REMARK   68  A    between atoms: _167  and  _169
REMARK   69  A    between atoms: _169  and  _170
REMARK   70  A    between atoms: _169  and  _172
REMARK   71  A    between atoms: _172  and  _173
REMARK   72  A    between atoms: _178  and  _179
REMARK   73  A    between atoms: _181  and  _183
REMARK   74  A    between atoms: _183  and  _184
REMARK   75  A    between atoms: _183  and  _186
REMARK   76  A    between atoms: _186  and  _187
REMARK   77  A    between atoms: _192  and  _194
REMARK   78  A    between atoms: _194  and  _195
REMARK   79  A    between atoms: _194  and  _197
REMARK   80  A    between atoms: _197  and  _198
REMARK   81  A    between atoms: _201  and  _203
REMARK   82  A    between atoms: _203  and  _204
REMARK   83  A    between atoms: _206  and  _208
REMARK   84  A    between atoms: _208  and  _209
REMARK   85  A    between atoms: _208  and  _211
REMARK   86  A    between atoms: _211  and  _212
REMARK   87  A    between atoms: _212  and  _213
REMARK   88  A    between atoms: _215  and  _217
REMARK   89  A    between atoms: _217  and  _218
REMARK   90  A    between atoms: _217  and  _220
REMARK   91  A    between atoms: _220  and  _221
REMARK   92  A    between atoms: _226  and  _227
REMARK   93  A    between atoms: _229  and  _231
REMARK   94  A    between atoms: _231  and  _232
REMARK   95  A    between atoms: _231  and  _234
REMARK   96  A    between atoms: _234  and  _235
REMARK   97  A    between atoms: _237  and  _239
REMARK   98  A    between atoms: _239  and  _240
REMARK   99  A    between atoms: _239  and  _242
REMARK  100  A    between atoms: _242  and  _243
REMARK  101  A    between atoms: _246  and  _248
REMARK  102  A    between atoms: _248  and  _249
REMARK  103  A    between atoms: _248  and  _251
REMARK  104  A    between atoms: _251  and  _252
REMARK  105  A    between atoms: _257  and  _259
REMARK  106  A    between atoms: _259  and  _260
REMARK  107  A    between atoms: _259  and  _262
REMARK  108  A    between atoms: _262  and  _263
REMARK  109  A    between atoms: _263  and  _264
REMARK  110  A    between atoms: _267  and  _269
REMARK  111  A    between atoms: _269  and  _270
REMARK  112  A    between atoms: _273  and  _275
REMARK  113  A    between atoms: _275  and  _276
REMARK  114  A    between atoms: _275  and  _278
REMARK  115  A    between atoms: _278  and  _279
REMARK  116  A    between atoms: _282  and  _284
REMARK  117  A    between atoms: _284  and  _285
REMARK  118  A    between atoms: _284  and  _287
REMARK  119  A    between atoms: _287  and  _288
REMARK  120  A    between atoms: _293  and  _295
REMARK  121  A    between atoms: _295  and  _296
REMARK  122  A    between atoms: _298  and  _300
REMARK  123  A    between atoms: _300  and  _301
REMARK  124  A    between atoms: _300  and  _303
REMARK  125  A    between atoms: _303  and  _304
REMARK  126  A    between atoms: _307  and  _309
REMARK  127  A    between atoms: _309  and  _310
REMARK  128  A    between atoms: _309  and  _312
REMARK  129  A    between atoms: _312  and  _313
REMARK  130  A    between atoms: _313  and  _314
REMARK  131  A    between atoms: _314  and  _315
REMARK  132  A    between atoms: _315  and  _316
REMARK  133  A    between atoms: _320  and  _322
REMARK  134  A    between atoms: _322  and  _323
REMARK  135  A    between atoms: _322  and  _325
REMARK  136  A    between atoms: _325  and  _326
REMARK  137  A    between atoms: _331  and  _333
REMARK  138  A    between atoms: _333  and  _334
REMARK  139  A    between atoms: _333  and  _336
REMARK  140  A    between atoms: _336  and  _337
REMARK  141  A    between atoms: _340  and  _342
REMARK  142  A    between atoms: _342  and  _343
REMARK  143  A    between atoms: _342  and  _345
REMARK  144  A    between atoms: _345  and  _346
REMARK  145  A    between atoms: _346  and  _347
REMARK  146  A    between atoms: _349  and  _351
REMARK  147  A    between atoms: _351  and  _352
REMARK  148  A    between atoms: _351  and  _354
REMARK  149  A    between atoms: _354  and  _355
REMARK  150  A    between atoms: _358  and  _360
REMARK  151  A    between atoms: _360  and  _361
REMARK  152  A    between atoms: _360  and  _363
REMARK  153  A    between atoms: _363  and  _364
REMARK  154  A    between atoms: _367  and  _369
REMARK  155  A    between atoms: _369  and  _370
REMARK                            x       y       z     vdW  Elec       q    Type
REMARK                         _______ _______ _______ _____ _____    ______ ____
ROOT
ATOM      1  CB  ASN A   1      79.897  64.909  11.061  0.00  0.00    +0.110 C 
ENDROOT
BRANCH   1   2
ATOM      2  CG  ASN A   1      81.140  65.053  10.208  0.00  0.00    +0.221 C 
ATOM      3  ND2 ASN A   1      82.266  64.505  10.681  0.00  0.00    -0.329 N 
ATOM      4 HD21 ASN A   1      82.249  63.968  11.571  0.00  0.00    +0.145 HD
ATOM      5 HD22 ASN A   1      83.158  64.617  10.158  0.00  0.00    +0.145 HD
ATOM      6  OD1 ASN A   1      81.145  65.689   9.160  0.00  0.00    -0.275 OA
ENDBRANCH   1   2
BRANCH   1   7
ATOM      7  CA  ASN A   1      78.523  65.262  10.501  0.00  0.00    +0.142 C 
BRANCH   7   8
ATOM      8  N   ASN A   1      77.902  66.233  11.380  0.00  0.00    -0.239 NA
ATOM      9  H   ASN A   1      77.711  65.982  12.371  0.00  0.00    +0.142 HD
ENDBRANCH   7   8
BRANCH   7  10
ATOM     10  C   ASN A   1      77.726  63.979  10.331  0.00  0.00    +0.225 C 
ATOM     11  O   ASN A   1      78.258  63.030   9.744  0.00  0.00    -0.287 OA
ENDBRANCH   7  10
ENDBRANCH   1   7
TORSDOF 4
REMARK  Name = ../refined-set-2016/1grp/1grp_pocket.pdb
REMARK  155 active torsions:
REMARK  status: ('A' for Active; 'I' for Inactive)
REMARK    1  A    between atoms: _1  and  _3
REMARK    2  A    between atoms: _3  and  _4
REMARK    3  A    between atoms: _3  and  _6
REMARK    4  A    between atoms: _6  and  _7
REMARK    5  A    between atoms: _7  and  _8
REMARK    6  A    between atoms: _8  and  _9
REMARK    7  A    between atoms: _9  and  _10
REMARK    8  A    between atoms: _14  and  _16
REMARK    9  A    between atoms: _16  and  _17
REMARK   10  A    between atoms: _16  and  _19
REMARK   11  A    between atoms: _19  and  _20
REMARK   12  A    between atoms: _23  and  _25
REMARK   13  A    between atoms: _25  and  _26
REMARK   14  A    between atoms: _25  and  _28
REMARK   15  A    between atoms: _28  and  _29
REMARK   16  A    between atoms: _32  and  _34
REMARK   17  A    between atoms: _34  and  _35
REMARK   18  A    between atoms: _34  and  _37
REMARK   19  A    between atoms: _37  and  _38
REMARK   20  A    between atoms: _41  and  _43
REMARK   21  A    between atoms: _43  and  _44
REMARK   22  A    between atoms: _43  and  _46
REMARK   23  A    between atoms: _46  and  _47
REMARK   24  A    between atoms: _47  and  _48
REMARK   25  A    between atoms: _48  and  _49
REMARK   26  A    between atoms: _58  and  _60
REMARK   27  A    between atoms: _60  and  _61
REMARK   28  A    between atoms: _60  and  _63
REMARK   29  A    between atoms: _63  and  _64
REMARK   30  A    between atoms: _66  and  _68
REMARK   31  A    between atoms: _68  and  _69
REMARK   32  A    between atoms: _68  and  _71
REMARK   33  A    between atoms: _71  and  _72
REMARK   34  A    between atoms: _75  and  _77
REMARK   35  A    between atoms: _77  and  _78
REMARK   36  A    between atoms: _77  and  _80
REMARK   37  A    between atoms: _80  and  _81
REMARK   38  A    between atoms: _84  and  _86
REMARK   39  A    between atoms: _86  and  _87
REMARK   40  A    between atoms: _86  and  _89
REMARK   41  A    between atoms: _92  and  _94
REMARK   42  A    between atoms: _94  and  _95
REMARK   43  A    between atoms: _98  and  _100
REMARK   44  A    between atoms: _100  and  _101
REMARK   45  A    between atoms: _100  and  _103
REMARK   46  A    between atoms: _103  and  _104
REMARK   47  A    between atoms: _104  and  _105
REMARK   48  A    between atoms: _105  and  _106
REMARK   49  A    between atoms: _115  and  _117
REMARK   50  A    between atoms: _117  and  _118
REMARK   51  A    between atoms: _117  and  _120
REMARK   52  A    between atoms: _122  and  _124
REMARK   53  A    between atoms: _124  and  _125
REMARK   54  A    between atoms: _124  and  _127
REMARK   55  A    between atoms: _127  and  _128
REMARK   56  A    between atoms: _128  and  _129
REMARK   57  A    between atoms: _129  and  _130
REMARK   58  A    between atoms: _139  and  _141
REMARK   59  A    between atoms: _141  and  _142
REMARK   60  A    between atoms: _141  and  _144
REMARK   61  A    between atoms: _144  and  _145
REMARK   62  A    between atoms: _145  and  _146
REMARK   63  A    between atoms: _146  and  _147
REMARK   64  A    between atoms: _156  and  _158
REMARK   65  A    between atoms: _158  and  _159
REMARK   66  A    between atoms: _158  and  _161
REMARK   67  A    between atoms: _161  and  _162
REMARK   68  A    between atoms: _167  and  _169
REMARK   69  A    between atoms: _169  and  _170
REMARK   70  A    between atoms: _169  and  _172
REMARK   71  A    between atoms: _172  and  _173
REMARK   72  A    between atoms: _178  and  _179
REMARK   73  A    between atoms: _181  and  _183
REMARK   74  A    between atoms: _183  and  _184
REMARK   75  A    between atoms: _183  and  _186
REMARK   76  A    between atoms: _186  and  _187
REMARK   77  A    between atoms: _192  and  _194
REMARK   78  A    between atoms: _194  and  _195
REMARK   79  A    between atoms: _194  and  _197
REMARK   80  A    between atoms: _197  and  _198
REMARK   81  A    between atoms: _201  and  _203
REMARK   82  A    between atoms: _203  and  _204
REMARK   83  A    between atoms: _206  and  _208
REMARK   84  A    between atoms: _208  and  _209
REMARK   85  A    between atoms: _208  and  _211
REMARK   86  A    between atoms: _211  and  _212
REMARK   87  A    between atoms: _212  and  _213
REMARK   88  A    between atoms: _215  and  _217
REMARK   89  A    between atoms: _217  and  _218
REMARK   90  A    between atoms: _217  and  _220
REMARK   91  A    between atoms: _220  and  _221
REMARK   92  A    between atoms: _226  and  _227
REMARK   93  A    between atoms: _229  and  _231
REMARK   94  A    between atoms: _231  and  _232
REMARK   95  A    between atoms: _231  and  _234
REMARK   96  A    between atoms: _234  and  _235
REMARK   97  A    between atoms: _237  and  _239
REMARK   98  A    between atoms: _239  and  _240
REMARK   99  A    between atoms: _239  and  _242
REMARK  100  A    between atoms: _242  and  _243
REMARK  101  A    between atoms: _246  and  _248
REMARK  102  A    between atoms: _248  and  _249
REMARK  103  A    between atoms: _248  and  _251
REMARK  104  A    between atoms: _251  and  _252
REMARK  105  A    between atoms: _257  and  _259
REMARK  106  A    between atoms: _259  and  _260
REMARK  107  A    between atoms: _259  and  _262
REMARK  108  A    between atoms: _262  and  _263
REMARK  109  A    between atoms: _263  and  _264
REMARK  110  A    between atoms: _267  and  _269
REMARK  111  A    between atoms: _269  and  _270
REMARK  112  A    between atoms: _273  and  _275
REMARK  113  A    between atoms: _275  and  _276
REMARK  114  A    between atoms: _275  and  _278
REMARK  115  A    between atoms: _278  and  _279
REMARK  116  A    between atoms: _282  and  _284
REMARK  117  A    between atoms: _284  and  _285
REMARK  118  A    between atoms: _284  and  _287
REMARK  119  A    between atoms: _287  and  _288
REMARK  120  A    between atoms: _293  and  _295
REMARK  121  A    between atoms: _295  and  _296
REMARK  122  A    between atoms: _298  and  _300
REMARK  123  A    between atoms: _300  and  _301
REMARK  124  A    between atoms: _300  and  _303
REMARK  125  A    between atoms: _303  and  _304
REMARK  126  A    between atoms: _307  and  _309
REMARK  127  A    between atoms: _309  and  _310
REMARK  128  A    between atoms: _309  and  _312
REMARK  129  A    between atoms: _312  and  _313
REMARK  130  A    between atoms: _313  and  _314
REMARK  131  A    between atoms: _314  and  _315
REMARK  132  A    between atoms: _315  and  _316
REMARK  133  A    between atoms: _320  and  _322
REMARK  134  A    between atoms: _322  and  _323
REMARK  135  A    between atoms: _322  and  _325
REMARK  136  A    between atoms: _325  and  _326
REMARK  137  A    between atoms: _331  and  _333
REMARK  138  A    between atoms: _333  and  _334
REMARK  139  A    between atoms: _333  and  _336
REMARK  140  A    between atoms: _336  and  _337
REMARK  141  A    between atoms: _340  and  _342
REMARK  142  A    between atoms: _342  and  _343
REMARK  143  A    between atoms: _342  and  _345
REMARK  144  A    between atoms: _345  and  _346
REMARK  145  A    between atoms: _346  and  _347
REMARK  146  A    between atoms: _349  and  _351
REMARK  147  A    between atoms: _351  and  _352
REMARK  148  A    between atoms: _351  and  _354
REMARK  149  A    between atoms: _354  and  _355
REMARK  150  A    between atoms: _358  and  _360
REMARK  151  A    between atoms: _360  and  _361
REMARK  152  A    between atoms: _360  and  _363
REMARK  153  A    between atoms: _363  and  _364
REMARK  154  A    between atoms: _367  and  _369
REMARK  155  A    between atoms: _369  and  _370
REMARK                            x       y       z     vdW  Elec       q    Type
REMARK                         _______ _______ _______ _____ _____    ______ ____
ROOT
ATOM      1  CG  TYR A   1      77.093  65.061   3.562  0.00  0.00    -0.020 A 
ATOM      2  CD2 TYR A   1      78.419  64.694   3.393  0.00  0.00    -0.001 A 
ATOM      3  CE2 TYR A   1      79.328  65.613   2.869  0.00  0.00    +0.036 A 
ATOM      4  CZ  TYR A   1      78.890  66.883   2.525  0.00  0.00    +0.134 A 
ATOM      5  CE1 TYR A   1      77.557  67.256   2.695  0.00  0.00    +0.036 A 
ATOM      6  CD1 TYR A   1      76.646  66.337   3.221  0.00  0.00    -0.001 A 
ENDROOT
BRANCH   4   7
ATOM      7  OH  TYR A   1      79.780  67.782   1.992  0.00  0.00    -0.506 OA
ATOM      8  HH  TYR A   1      80.154  67.416   1.152  0.00  0.00    +0.292 HD
ENDBRANCH   4   7
BRANCH   1   9
ATOM      9  CB  TYR A   1      76.149  64.047   4.146  0.00  0.00    +0.051 C 
BRANCH   9  10
ATOM     10  CA  TYR A   1      75.105  63.582   3.222  0.00  0.00    +0.137 C 
BRANCH  10  11
ATOM     11  N   TYR A   1      73.979  64.512   3.188  0.00  0.00    -0.239 NA
ATOM     12  H   TYR A   1      73.949  65.271   3.898  0.00  0.00    +0.142 HD
ENDBRANCH  10  11
BRANCH  10  13
ATOM     13  C   TYR A   1      74.822  62.158   3.639  0.00  0.00    +0.224 C 
ATOM     14  O   TYR A   1      75.705  61.311   3.524  0.00  0.00    -0.287 OA
ENDBRANCH  10  13
ENDBRANCH   9  10
ENDBRANCH   1   9
TORSDOF 5
REMARK  Name = ../refined-set-2016/1grp/1grp_pocket.pdb
REMARK  155 active torsions:
REMARK  status: ('A' for Active; 'I' for Inactive)
REMARK    1  A    between atoms: _1  and  _3
REMARK    2  A    between atoms: _3  and  _4
REMARK    3  A    between atoms: _3  and  _6
REMARK    4  A    between atoms: _6  and  _7
REMARK    5  A    between atoms: _7  and  _8
REMARK    6  A    between atoms: _8  and  _9
REMARK    7  A    between atoms: _9  and  _10
REMARK    8  A    between atoms: _14  and  _16
REMARK    9  A    between atoms: _16  and  _17
REMARK   10  A    between atoms: _16  and  _19
REMARK   11  A    between atoms: _19  and  _20
REMARK   12  A    between atoms: _23  and  _25
REMARK   13  A    between atoms: _25  and  _26
REMARK   14  A    between atoms: _25  and  _28
REMARK   15  A    between atoms: _28  and  _29
REMARK   16  A    between atoms: _32  and  _34
REMARK   17  A    between atoms: _34  and  _35
REMARK   18  A    between atoms: _34  and  _37
REMARK   19  A    between atoms: _37  and  _38
REMARK   20  A    between atoms: _41  and  _43
REMARK   21  A    between atoms: _43  and  _44
REMARK   22  A    between atoms: _43  and  _46
REMARK   23  A    between atoms: _46  and  _47
REMARK   24  A    between atoms: _47  and  _48
REMARK   25  A    between atoms: _48  and  _49
REMARK   26  A    between atoms: _58  and  _60
REMARK   27  A    between atoms: _60  and  _61
REMARK   28  A    between atoms: _60  and  _63
REMARK   29  A    between atoms: _63  and  _64
REMARK   30  A    between atoms: _66  and  _68
REMARK   31  A    between atoms: _68  and  _69
REMARK   32  A    between atoms: _68  and  _71
REMARK   33  A    between atoms: _71  and  _72
REMARK   34  A    between atoms: _75  and  _77
REMARK   35  A    between atoms: _77  and  _78
REMARK   36  A    between atoms: _77  and  _80
REMARK   37  A    between atoms: _80  and  _81
REMARK   38  A    between atoms: _84  and  _86
REMARK   39  A    between atoms: _86  and  _87
REMARK   40  A    between atoms: _86  and  _89
REMARK   41  A    between atoms: _92  and  _94
REMARK   42  A    between atoms: _94  and  _95
REMARK   43  A    between atoms: _98  and  _100
REMARK   44  A    between atoms: _100  and  _101
REMARK   45  A    between atoms: _100  and  _103
REMARK   46  A    between atoms: _103  and  _104
REMARK   47  A    between atoms: _104  and  _105
REMARK   48  A    between atoms: _105  and  _106
REMARK   49  A    between atoms: _115  and  _117
REMARK   50  A    between atoms: _117  and  _118
REMARK   51  A    between atoms: _117  and  _120
REMARK   52  A    between atoms: _122  and  _124
REMARK   53  A    between atoms: _124  and  _125
REMARK   54  A    between atoms: _124  and  _127
REMARK   55  A    between atoms: _127  and  _128
REMARK   56  A    between atoms: _128  and  _129
REMARK   57  A    between atoms: _129  and  _130
REMARK   58  A    between atoms: _139  and  _141
REMARK   59  A    between atoms: _141  and  _142
REMARK   60  A    between atoms: _141  and  _144
REMARK   61  A    between atoms: _144  and  _145
REMARK   62  A    between atoms: _145  and  _146
REMARK   63  A    between atoms: _146  and  _147
REMARK   64  A    between atoms: _156  and  _158
REMARK   65  A    between atoms: _158  and  _159
REMARK   66  A    between atoms: _158  and  _161
REMARK   67  A    between atoms: _161  and  _162
REMARK   68  A    between atoms: _167  and  _169
REMARK   69  A    between atoms: _169  and  _170
REMARK   70  A    between atoms: _169  and  _172
REMARK   71  A    between atoms: _172  and  _173
REMARK   72  A    between atoms: _178  and  _179
REMARK   73  A    between atoms: _181  and  _183
REMARK   74  A    between atoms: _183  and  _184
REMARK   75  A    between atoms: _183  and  _186
REMARK   76  A    between atoms: _186  and  _187
REMARK   77  A    between atoms: _192  and  _194
REMARK   78  A    between atoms: _194  and  _195
REMARK   79  A    between atoms: _194  and  _197
REMARK   80  A    between atoms: _197  and  _198
REMARK   81  A    between atoms: _201  and  _203
REMARK   82  A    between atoms: _203  and  _204
REMARK   83  A    between atoms: _206  and  _208
REMARK   84  A    between atoms: _208  and  _209
REMARK   85  A    between atoms: _208  and  _211
REMARK   86  A    between atoms: _211  and  _212
REMARK   87  A    between atoms: _212  and  _213
REMARK   88  A    between atoms: _215  and  _217
REMARK   89  A    between atoms: _217  and  _218
REMARK   90  A    between atoms: _217  and  _220
REMARK   91  A    between atoms: _220  and  _221
REMARK   92  A    between atoms: _226  and  _227
REMARK   93  A    between atoms: _229  and  _231
REMARK   94  A    between atoms: _231  and  _232
REMARK   95  A    between atoms: _231  and  _234
REMARK   96  A    between atoms: _234  and  _235
REMARK   97  A    between atoms: _237  and  _239
REMARK   98  A    between atoms: _239  and  _240
REMARK   99  A    between atoms: _239  and  _242
REMARK  100  A    between atoms: _242  and  _243
REMARK  101  A    between atoms: _246  and  _248
REMARK  102  A    between atoms: _248  and  _249
REMARK  103  A    between atoms: _248  and  _251
REMARK  104  A    between atoms: _251  and  _252
REMARK  105  A    between atoms: _257  and  _259
REMARK  106  A    between atoms: _259  and  _260
REMARK  107  A    between atoms: _259  and  _262
REMARK  108  A    between atoms: _262  and  _263
REMARK  109  A    between atoms: _263  and  _264
REMARK  110  A    between atoms: _267  and  _269
REMARK  111  A    between atoms: _269  and  _270
REMARK  112  A    between atoms: _273  and  _275
REMARK  113  A    between atoms: _275  and  _276
REMARK  114  A    between atoms: _275  and  _278
REMARK  115  A    between atoms: _278  and  _279
REMARK  116  A    between atoms: _282  and  _284
REMARK  117  A    between atoms: _284  and  _285
REMARK  118  A    between atoms: _284  and  _287
REMARK  119  A    between atoms: _287  and  _288
REMARK  120  A    between atoms: _293  and  _295
REMARK  121  A    between atoms: _295  and  _296
REMARK  122  A    between atoms: _298  and  _300
REMARK  123  A    between atoms: _300  and  _301
REMARK  124  A    between atoms: _300  and  _303
REMARK  125  A    between atoms: _303  and  _304
REMARK  126  A    between atoms: _307  and  _309
REMARK  127  A    between atoms: _309  and  _310
REMARK  128  A    between atoms: _309  and  _312
REMARK  129  A    between atoms: _312  and  _313
REMARK  130  A    between atoms: _313  and  _314
REMARK  131  A    between atoms: _314  and  _315
REMARK  132  A    between atoms: _315  and  _316
REMARK  133  A    between atoms: _320  and  _322
REMARK  134  A    between atoms: _322  and  _323
REMARK  135  A    between atoms: _322  and  _325
REMARK  136  A    between atoms: _325  and  _326
REMARK  137  A    between atoms: _331  and  _333
REMARK  138  A    between atoms: _333  and  _334
REMARK  139  A    between atoms: _333  and  _336
REMARK  140  A    between atoms: _336  and  _337
REMARK  141  A    between atoms: _340  and  _342
REMARK  142  A    between atoms: _342  and  _343
REMARK  143  A    between atoms: _342  and  _345
REMARK  144  A    between atoms: _345  and  _346
REMARK  145  A    between atoms: _346  and  _347
REMARK  146  A    between atoms: _349  and  _351
REMARK  147  A    between atoms: _351  and  _352
REMARK  148  A    between atoms: _351  and  _354
REMARK  149  A    between atoms: _354  and  _355
REMARK  150  A    between atoms: _358  and  _360
REMARK  151  A    between atoms: _360  and  _361
REMARK  152  A    between atoms: _360  and  _363
REMARK  153  A    between atoms: _363  and  _364
REMARK  154  A    between atoms: _367  and  _369
REMARK  155  A    between atoms: _369  and  _370
REMARK                            x       y       z     vdW  Elec       q    Type
REMARK                         _______ _______ _______ _____ _____    ______ ____
ROOT
ATOM      1  C   ASN A   1      77.030  69.855   5.797  0.00  0.00    +0.239 C 
ATOM      2  O   ASN A   1      78.197  70.214   5.698  0.00  0.00    -0.274 OA
ATOM      3  N   LEU A   2      76.135  70.078   4.845  0.00  0.00    -0.298 N 
ATOM      4  H   LEU A   2      75.149  69.772   4.971  0.00  0.00    +0.150 HD
ENDROOT
BRANCH   1   5
ATOM      5  CA  ASN A   1      76.604  69.162   7.060  0.00  0.00    +0.154 C 
BRANCH   5   6
ATOM      6  N   ASN A   1      75.542  69.797   7.824  0.00  0.00    -0.238 NA
ATOM      7  H   ASN A   1      74.672  69.254   7.998  0.00  0.00    +0.142 HD
ENDBRANCH   5   6
BRANCH   5   8
ATOM      8  CB  ASN A   1      76.190  67.751   6.716  0.00  0.00    +0.111 C 
BRANCH   8   9
ATOM      9  CG  ASN A   1      77.301  66.740   6.802  0.00  0.00    +0.221 C 
ATOM     10  ND2 ASN A   1      76.904  65.501   7.136  0.00  0.00    -0.329 N 
ATOM     11 HD21 ASN A   1      75.899  65.310   7.325  0.00  0.00    +0.145 HD
ATOM     12 HD22 ASN A   1      77.601  64.733   7.206  0.00  0.00    +0.145 HD
ATOM     13  OD1 ASN A   1      78.472  67.042   6.564  0.00  0.00    -0.275 OA
ENDBRANCH   8   9
ENDBRANCH   5   8
ENDBRANCH   1   5
BRANCH   3  14
ATOM     14  CA  LEU A   2      76.540  70.751   3.626  0.00  0.00    +0.137 C 
BRANCH  14  15
ATOM     15  C   LEU A   2      76.951  72.196   3.874  0.00  0.00    +0.227 C 
ATOM     16  O   LEU A   2      78.007  72.582   3.382  0.00  0.00    -0.286 OA
ENDBRANCH  14  15
BRANCH  14  17
ATOM     17  CB  LEU A   2      75.412  70.722   2.584  0.00  0.00    +0.028 C 
BRANCH  17  18
ATOM     18  CG  LEU A   2      75.874  71.074   1.173  0.00  0.00    +0.002 C 
ATOM     19  CD2 LEU A   2      76.784  69.984   0.606  0.00  0.00    +0.000 C 
ATOM     20  CD1 LEU A   2      74.672  71.221   0.302  0.00  0.00    +0.000 C 
ENDBRANCH  17  18
ENDBRANCH  14  17
ENDBRANCH   3  14
TORSDOF 8
REMARK  Name = ../refined-set-2016/1grp/1grp_pocket.pdb
REMARK  155 active torsions:
REMARK  status: ('A' for Active; 'I' for Inactive)
REMARK    1  A    between atoms: _1  and  _3
REMARK    2  A    between atoms: _3  and  _4
REMARK    3  A    between atoms: _3  and  _6
REMARK    4  A    between atoms: _6  and  _7
REMARK    5  A    between atoms: _7  and  _8
REMARK    6  A    between atoms: _8  and  _9
REMARK    7  A    between atoms: _9  and  _10
REMARK    8  A    between atoms: _14  and  _16
REMARK    9  A    between atoms: _16  and  _17
REMARK   10  A    between atoms: _16  and  _19
REMARK   11  A    between atoms: _19  and  _20
REMARK   12  A    between atoms: _23  and  _25
REMARK   13  A    between atoms: _25  and  _26
REMARK   14  A    between atoms: _25  and  _28
REMARK   15  A    between atoms: _28  and  _29
REMARK   16  A    between atoms: _32  and  _34
REMARK   17  A    between atoms: _34  and  _35
REMARK   18  A    between atoms: _34  and  _37
REMARK   19  A    between atoms: _37  and  _38
REMARK   20  A    between atoms: _41  and  _43
REMARK   21  A    between atoms: _43  and  _44
REMARK   22  A    between atoms: _43  and  _46
REMARK   23  A    between atoms: _46  and  _47
REMARK   24  A    between atoms: _47  and  _48
REMARK   25  A    between atoms: _48  and  _49
REMARK   26  A    between atoms: _58  and  _60
REMARK   27  A    between atoms: _60  and  _61
REMARK   28  A    between atoms: _60  and  _63
REMARK   29  A    between atoms: _63  and  _64
REMARK   30  A    between atoms: _66  and  _68
REMARK   31  A    between atoms: _68  and  _69
REMARK   32  A    between atoms: _68  and  _71
REMARK   33  A    between atoms: _71  and  _72
REMARK   34  A    between atoms: _75  and  _77
REMARK   35  A    between atoms: _77  and  _78
REMARK   36  A    between atoms: _77  and  _80
REMARK   37  A    between atoms: _80  and  _81
REMARK   38  A    between atoms: _84  and  _86
REMARK   39  A    between atoms: _86  and  _87
REMARK   40  A    between atoms: _86  and  _89
REMARK   41  A    between atoms: _92  and  _94
REMARK   42  A    between atoms: _94  and  _95
REMARK   43  A    between atoms: _98  and  _100
REMARK   44  A    between atoms: _100  and  _101
REMARK   45  A    between atoms: _100  and  _103
REMARK   46  A    between atoms: _103  and  _104
REMARK   47  A    between atoms: _104  and  _105
REMARK   48  A    between atoms: _105  and  _106
REMARK   49  A    between atoms: _115  and  _117
REMARK   50  A    between atoms: _117  and  _118
REMARK   51  A    between atoms: _117  and  _120
REMARK   52  A    between atoms: _122  and  _124
REMARK   53  A    between atoms: _124  and  _125
REMARK   54  A    between atoms: _124  and  _127
REMARK   55  A    between atoms: _127  and  _128
REMARK   56  A    between atoms: _128  and  _129
REMARK   57  A    between atoms: _129  and  _130
REMARK   58  A    between atoms: _139  and  _141
REMARK   59  A    between atoms: _141  and  _142
REMARK   60  A    between atoms: _141  and  _144
REMARK   61  A    between atoms: _144  and  _145
REMARK   62  A    between atoms: _145  and  _146
REMARK   63  A    between atoms: _146  and  _147
REMARK   64  A    between atoms: _156  and  _158
REMARK   65  A    between atoms: _158  and  _159
REMARK   66  A    between atoms: _158  and  _161
REMARK   67  A    between atoms: _161  and  _162
REMARK   68  A    between atoms: _167  and  _169
REMARK   69  A    between atoms: _169  and  _170
REMARK   70  A    between atoms: _169  and  _172
REMARK   71  A    between atoms: _172  and  _173
REMARK   72  A    between atoms: _178  and  _179
REMARK   73  A    between atoms: _181  and  _183
REMARK   74  A    between atoms: _183  and  _184
REMARK   75  A    between atoms: _183  and  _186
REMARK   76  A    between atoms: _186  and  _187
REMARK   77  A    between atoms: _192  and  _194
REMARK   78  A    between atoms: _194  and  _195
REMARK   79  A    between atoms: _194  and  _197
REMARK   80  A    between atoms: _197  and  _198
REMARK   81  A    between atoms: _201  and  _203
REMARK   82  A    between atoms: _203  and  _204
REMARK   83  A    between atoms: _206  and  _208
REMARK   84  A    between atoms: _208  and  _209
REMARK   85  A    between atoms: _208  and  _211
REMARK   86  A    between atoms: _211  and  _212
REMARK   87  A    between atoms: _212  and  _213
REMARK   88  A    between atoms: _215  and  _217
REMARK   89  A    between atoms: _217  and  _218
REMARK   90  A    between atoms: _217  and  _220
REMARK   91  A    between atoms: _220  and  _221
REMARK   92  A    between atoms: _226  and  _227
REMARK   93  A    between atoms: _229  and  _231
REMARK   94  A    between atoms: _231  and  _232
REMARK   95  A    between atoms: _231  and  _234
REMARK   96  A    between atoms: _234  and  _235
REMARK   97  A    between atoms: _237  and  _239
REMARK   98  A    between atoms: _239  and  _240
REMARK   99  A    between atoms: _239  and  _242
REMARK  100  A    between atoms: _242  and  _243
REMARK  101  A    between atoms: _246  and  _248
REMARK  102  A    between atoms: _248  and  _249
REMARK  103  A    between atoms: _248  and  _251
REMARK  104  A    between atoms: _251  and  _252
REMARK  105  A    between atoms: _257  and  _259
REMARK  106  A    between atoms: _259  and  _260
REMARK  107  A    between atoms: _259  and  _262
REMARK  108  A    between atoms: _262  and  _263
REMARK  109  A    between atoms: _263  and  _264
REMARK  110  A    between atoms: _267  and  _269
REMARK  111  A    between atoms: _269  and  _270
REMARK  112  A    between atoms: _273  and  _275
REMARK  113  A    between atoms: _275  and  _276
REMARK  114  A    between atoms: _275  and  _278
REMARK  115  A    between atoms: _278  and  _279
REMARK  116  A    between atoms: _282  and  _284
REMARK  117  A    between atoms: _284  and  _285
REMARK  118  A    between atoms: _284  and  _287
REMARK  119  A    between atoms: _287  and  _288
REMARK  120  A    between atoms: _293  and  _295
REMARK  121  A    between atoms: _295  and  _296
REMARK  122  A    between atoms: _298  and  _300
REMARK  123  A    between atoms: _300  and  _301
REMARK  124  A    between atoms: _300  and  _303
REMARK  125  A    between atoms: _303  and  _304
REMARK  126  A    between atoms: _307  and  _309
REMARK  127  A    between atoms: _309  and  _310
REMARK  128  A    between atoms: _309  and  _312
REMARK  129  A    between atoms: _312  and  _313
REMARK  130  A    between atoms: _313  and  _314
REMARK  131  A    between atoms: _314  and  _315
REMARK  132  A    between atoms: _315  and  _316
REMARK  133  A    between atoms: _320  and  _322
REMARK  134  A    between atoms: _322  and  _323
REMARK  135  A    between atoms: _322  and  _325
REMARK  136  A    between atoms: _325  and  _326
REMARK  137  A    between atoms: _331  and  _333
REMARK  138  A    between atoms: _333  and  _334
REMARK  139  A    between atoms: _333  and  _336
REMARK  140  A    between atoms: _336  and  _337
REMARK  141  A    between atoms: _340  and  _342
REMARK  142  A    between atoms: _342  and  _343
REMARK  143  A    between atoms: _342  and  _345
REMARK  144  A    between atoms: _345  and  _346
REMARK  145  A    between atoms: _346  and  _347
REMARK  146  A    between atoms: _349  and  _351
REMARK  147  A    between atoms: _351  and  _352
REMARK  148  A    between atoms: _351  and  _354
REMARK  149  A    between atoms: _354  and  _355
REMARK  150  A    between atoms: _358  and  _360
REMARK  151  A    between atoms: _360  and  _361
REMARK  152  A    between atoms: _360  and  _363
REMARK  153  A    between atoms: _363  and  _364
REMARK  154  A    between atoms: _367  and  _369
REMARK  155  A    between atoms: _369  and  _370
REMARK                            x       y       z     vdW  Elec       q    Type
REMARK                         _______ _______ _______ _____ _____    ______ ____
ROOT
ATOM      1  C   UNK A   2      81.679  73.237   3.265  0.00  0.00    +0.000 C 
ATOM      2  O   UNK A   2      82.853  73.455   2.976  0.00  0.00    +0.000 OA
ATOM      3  N   TYR A   3      80.694  74.058   2.925  0.00  0.00    +0.000 N 
ATOM      4  H   TYR A   3      79.724  73.825   3.219  0.00  0.00    +0.000 HD
ENDROOT
BRANCH   1   5
ATOM      5  C   UNK A   2      81.291  72.025   4.099  0.00  0.00    +0.000 C 
BRANCH   5   8
ATOM      6  C   GLY A   1      80.666  73.240   6.150  0.00  0.00    +0.000 C 
ATOM      7  O   GLY A   1      81.783  73.738   6.244  0.00  0.00    +0.000 OA
ATOM      8  N   UNK A   2      80.361  72.372   5.172  0.00  0.00    +0.000 N 
ATOM      9  H   UNK A   2      79.421  71.927   5.178  0.00  0.00    +0.000 HD
BRANCH   6  10
ATOM     10  CA  GLY A   1      79.581  73.608   7.160  0.00  0.00    +0.000 C 
BRANCH  10  11
ATOM     11  N   GLY A   1      78.243  73.604   6.583  0.00  0.00    +0.000 NA
ATOM     12  H   GLY A   1      77.522  72.946   6.942  0.00  0.00    +0.000 HD
ENDBRANCH  10  11
ENDBRANCH   6  10
ENDBRANCH   5   8
BRANCH   5  13
ATOM     13  C   UNK A   2      80.672  70.966   3.186  0.00  0.00    +0.000 C 
BRANCH  13  14
ATOM     14  C   UNK A   2      81.540  70.473   2.040  0.00  0.00    +0.000 C 
ATOM     15  O   UNK A   2      81.047  70.466   0.915  0.00  0.00    +0.000 OA
BRANCH  14  16
ATOM     16  O   UNK A   2      82.692  70.097   2.254  0.00  0.00    +0.000 OA
ATOM     17 MG   UNK A   2      85.151  70.290   2.161  0.00  0.00    +0.000 Mg
ENDBRANCH  14  16
ENDBRANCH  13  14
ENDBRANCH   5  13
ENDBRANCH   1   5
BRANCH   3  18
ATOM     18  CA  TYR A   3      80.918  75.262   2.163  0.00  0.00    +0.000 C 
BRANCH  18  19
ATOM     19  C   TYR A   3      81.574  76.341   3.007  0.00  0.00    +0.000 C 
ATOM     20  O   TYR A   3      82.595  76.865   2.587  0.00  0.00    +0.000 OA
ENDBRANCH  18  19
BRANCH  18  21
ATOM     21  CB  TYR A   3      79.576  75.724   1.618  0.00  0.00    +0.000 C 
BRANCH  21  22
ATOM     22  CG  TYR A   3      78.953  74.829   0.552  0.00  0.00    +0.000 A 
ATOM     23  CD2 TYR A   3      79.601  73.673   0.085  0.00  0.00    +0.000 A 
ATOM     24  CE2 TYR A   3      79.021  72.888  -0.904  0.00  0.00    +0.000 A 
ATOM     25  CZ  TYR A   3      77.783  73.265  -1.426  0.00  0.00    +0.000 A 
ATOM     26  CE1 TYR A   3      77.117  74.405  -0.974  0.00  0.00    +0.000 A 
ATOM     27  CD1 TYR A   3      77.709  75.187   0.022  0.00  0.00    +0.000 A 
BRANCH  25  28
ATOM     28  OH  TYR A   3      77.227  72.504  -2.427  0.00  0.00    +0.000 OA
ATOM     29  HH  TYR A   3      77.117  73.059  -3.239  0.00  0.00    +0.000 HD
ENDBRANCH  25  28
ENDBRANCH  21  22
ENDBRANCH  18  21
ENDBRANCH   3  18
TORSDOF 12
REMARK  Name = ../refined-set-2016/1grp/1grp_pocket.pdb
REMARK  155 active torsions:
REMARK  status: ('A' for Active; 'I' for Inactive)
REMARK    1  A    between atoms: _1  and  _3
REMARK    2  A    between atoms: _3  and  _4
REMARK    3  A    between atoms: _3  and  _6
REMARK    4  A    between atoms: _6  and  _7
REMARK    5  A    between atoms: _7  and  _8
REMARK    6  A    between atoms: _8  and  _9
REMARK    7  A    between atoms: _9  and  _10
REMARK    8  A    between atoms: _14  and  _16
REMARK    9  A    between atoms: _16  and  _17
REMARK   10  A    between atoms: _16  and  _19
REMARK   11  A    between atoms: _19  and  _20
REMARK   12  A    between atoms: _23  and  _25
REMARK   13  A    between atoms: _25  and  _26
REMARK   14  A    between atoms: _25  and  _28
REMARK   15  A    between atoms: _28  and  _29
REMARK   16  A    between atoms: _32  and  _34
REMARK   17  A    between atoms: _34  and  _35
REMARK   18  A    between atoms: _34  and  _37
REMARK   19  A    between atoms: _37  and  _38
REMARK   20  A    between atoms: _41  and  _43
REMARK   21  A    between atoms: _43  and  _44
REMARK   22  A    between atoms: _43  and  _46
REMARK   23  A    between atoms: _46  and  _47
REMARK   24  A    between atoms: _47  and  _48
REMARK   25  A    between atoms: _48  and  _49
REMARK   26  A    between atoms: _58  and  _60
REMARK   27  A    between atoms: _60  and  _61
REMARK   28  A    between atoms: _60  and  _63
REMARK   29  A    between atoms: _63  and  _64
REMARK   30  A    between atoms: _66  and  _68
REMARK   31  A    between atoms: _68  and  _69
REMARK   32  A    between atoms: _68  and  _71
REMARK   33  A    between atoms: _71  and  _72
REMARK   34  A    between atoms: _75  and  _77
REMARK   35  A    between atoms: _77  and  _78
REMARK   36  A    between atoms: _77  and  _80
REMARK   37  A    between atoms: _80  and  _81
REMARK   38  A    between atoms: _84  and  _86
REMARK   39  A    between atoms: _86  and  _87
REMARK   40  A    between atoms: _86  and  _89
REMARK   41  A    between atoms: _92  and  _94
REMARK   42  A    between atoms: _94  and  _95
REMARK   43  A    between atoms: _98  and  _100
REMARK   44  A    between atoms: _100  and  _101
REMARK   45  A    between atoms: _100  and  _103
REMARK   46  A    between atoms: _103  and  _104
REMARK   47  A    between atoms: _104  and  _105
REMARK   48  A    between atoms: _105  and  _106
REMARK   49  A    between atoms: _115  and  _117
REMARK   50  A    between atoms: _117  and  _118
REMARK   51  A    between atoms: _117  and  _120
REMARK   52  A    between atoms: _122  and  _124
REMARK   53  A    between atoms: _124  and  _125
REMARK   54  A    between atoms: _124  and  _127
REMARK   55  A    between atoms: _127  and  _128
REMARK   56  A    between atoms: _128  and  _129
REMARK   57  A    between atoms: _129  and  _130
REMARK   58  A    between atoms: _139  and  _141
REMARK   59  A    between atoms: _141  and  _142
REMARK   60  A    between atoms: _141  and  _144
REMARK   61  A    between atoms: _144  and  _145
REMARK   62  A    between atoms: _145  and  _146
REMARK   63  A    between atoms: _146  and  _147
REMARK   64  A    between atoms: _156  and  _158
REMARK   65  A    between atoms: _158  and  _159
REMARK   66  A    between atoms: _158  and  _161
REMARK   67  A    between atoms: _161  and  _162
REMARK   68  A    between atoms: _167  and  _169
REMARK   69  A    between atoms: _169  and  _170
REMARK   70  A    between atoms: _169  and  _172
REMARK   71  A    between atoms: _172  and  _173
REMARK   72  A    between atoms: _178  and  _179
REMARK   73  A    between atoms: _181  and  _183
REMARK   74  A    between atoms: _183  and  _184
REMARK   75  A    between atoms: _183  and  _186
REMARK   76  A    between atoms: _186  and  _187
REMARK   77  A    between atoms: _192  and  _194
REMARK   78  A    between atoms: _194  and  _195
REMARK   79  A    between atoms: _194  and  _197
REMARK   80  A    between atoms: _197  and  _198
REMARK   81  A    between atoms: _201  and  _203
REMARK   82  A    between atoms: _203  and  _204
REMARK   83  A    between atoms: _206  and  _208
REMARK   84  A    between atoms: _208  and  _209
REMARK   85  A    between atoms: _208  and  _211
REMARK   86  A    between atoms: _211  and  _212
REMARK   87  A    between atoms: _212  and  _213
REMARK   88  A    between atoms: _215  and  _217
REMARK   89  A    between atoms: _217  and  _218
REMARK   90  A    between atoms: _217  and  _220
REMARK   91  A    between atoms: _220  and  _221
REMARK   92  A    between atoms: _226  and  _227
REMARK   93  A    between atoms: _229  and  _231
REMARK   94  A    between atoms: _231  and  _232
REMARK   95  A    between atoms: _231  and  _234
REMARK   96  A    between atoms: _234  and  _235
REMARK   97  A    between atoms: _237  and  _239
REMARK   98  A    between atoms: _239  and  _240
REMARK   99  A    between atoms: _239  and  _242
REMARK  100  A    between atoms: _242  and  _243
REMARK  101  A    between atoms: _246  and  _248
REMARK  102  A    between atoms: _248  and  _249
REMARK  103  A    between atoms: _248  and  _251
REMARK  104  A    between atoms: _251  and  _252
REMARK  105  A    between atoms: _257  and  _259
REMARK  106  A    between atoms: _259  and  _260
REMARK  107  A    between atoms: _259  and  _262
REMARK  108  A    between atoms: _262  and  _263
REMARK  109  A    between atoms: _263  and  _264
REMARK  110  A    between atoms: _267  and  _269
REMARK  111  A    between atoms: _269  and  _270
REMARK  112  A    between atoms: _273  and  _275
REMARK  113  A    between atoms: _275  and  _276
REMARK  114  A    between atoms: _275  and  _278
REMARK  115  A    between atoms: _278  and  _279
REMARK  116  A    between atoms: _282  and  _284
REMARK  117  A    between atoms: _284  and  _285
REMARK  118  A    between atoms: _284  and  _287
REMARK  119  A    between atoms: _287  and  _288
REMARK  120  A    between atoms: _293  and  _295
REMARK  121  A    between atoms: _295  and  _296
REMARK  122  A    between atoms: _298  and  _300
REMARK  123  A    between atoms: _300  and  _301
REMARK  124  A    between atoms: _300  and  _303
REMARK  125  A    between atoms: _303  and  _304
REMARK  126  A    between atoms: _307  and  _309
REMARK  127  A    between atoms: _309  and  _310
REMARK  128  A    between atoms: _309  and  _312
REMARK  129  A    between atoms: _312  and  _313
REMARK  130  A    between atoms: _313  and  _314
REMARK  131  A    between atoms: _314  and  _315
REMARK  132  A    between atoms: _315  and  _316
REMARK  133  A    between atoms: _320  and  _322
REMARK  134  A    between atoms: _322  and  _323
REMARK  135  A    between atoms: _322  and  _325
REMARK  136  A    between atoms: _325  and  _326
REMARK  137  A    between atoms: _331  and  _333
REMARK  138  A    between atoms: _333  and  _334
REMARK  139  A    between atoms: _333  and  _336
REMARK  140  A    between atoms: _336  and  _337
REMARK  141  A    between atoms: _340  and  _342
REMARK  142  A    between atoms: _342  and  _343
REMARK  143  A    between atoms: _342  and  _345
REMARK  144  A    between atoms: _345  and  _346
REMARK  145  A    between atoms: _346  and  _347
REMARK  146  A    between atoms: _349  and  _351
REMARK  147  A    between atoms: _351  and  _352
REMARK  148  A    between atoms: _351  and  _354
REMARK  149  A    between atoms: _354  and  _355
REMARK  150  A    between atoms: _358  and  _360
REMARK  151  A    between atoms: _360  and  _361
REMARK  152  A    between atoms: _360  and  _363
REMARK  153  A    between atoms: _363  and  _364
REMARK  154  A    between atoms: _367  and  _369
REMARK  155  A    between atoms: _369  and  _370
REMARK                            x       y       z     vdW  Elec       q    Type
REMARK                         _______ _______ _______ _____ _____    ______ ____
ROOT
ATOM      1  C   SER A   1      85.765  76.102   5.023  0.00  0.00    +0.241 C 
ATOM      2  O   SER A   1      86.830  76.662   5.260  0.00  0.00    -0.274 OA
ATOM      3  N   ASP A   2      85.404  75.728   3.781  0.00  0.00    -0.298 N 
ATOM      4  H   ASP A   2      84.478  75.276   3.636  0.00  0.00    +0.150 HD
ENDROOT
BRANCH   1   5
ATOM      5  CA  SER A   1      84.795  75.940   6.163  0.00  0.00    +0.174 C 
BRANCH   5   6
ATOM      6  N   SER A   1      83.415  76.156   5.784  0.00  0.00    -0.236 NA
ATOM      7  H   SER A   1      82.743  75.362   5.760  0.00  0.00    +0.142 HD
ENDBRANCH   5   6
BRANCH   5   8
ATOM      8  CB  SER A   1      84.947  74.570   6.797  0.00  0.00    +0.163 C 
BRANCH   8   9
ATOM      9  OG  SER A   1      84.440  73.493   6.051  0.00  0.00    -0.380 OA
ATOM     10  H   SER A   1      83.470  73.624   5.902  0.00  0.00    +0.211 HD
ENDBRANCH   8   9
ENDBRANCH   5   8
ENDBRANCH   1   5
BRANCH   3  11
ATOM     11  CA  ASP A   2      86.276  75.940   2.637  0.00  0.00    +0.148 C 
BRANCH  11  12
ATOM     12  C   ASP A   2      86.366  77.394   2.266  0.00  0.00    +0.227 C 
ATOM     13  O   ASP A   2      87.464  77.902   2.062  0.00  0.00    -0.286 OA
ENDBRANCH  11  12
BRANCH  11  14
ATOM     14  CB  ASP A   2      85.790  75.182   1.442  0.00  0.00    +0.142 C 
BRANCH  14  15
ATOM     15  CG  ASP A   2      86.398  73.788   1.359  0.00  0.00    +0.367 C 
ATOM     16  OD2 ASP A   2      86.505  73.095   2.374  0.00  0.00    -0.246 OA
ATOM     17  OD1 ASP A   2      86.752  73.380   0.255  0.00  0.00    -0.246 OA
ENDBRANCH  14  15
ENDBRANCH  11  14
ENDBRANCH   3  11
TORSDOF 8
REMARK  Name = ../refined-set-2016/1grp/1grp_pocket.pdb
REMARK  155 active torsions:
REMARK  status: ('A' for Active; 'I' for Inactive)
REMARK    1  A    between atoms: _1  and  _3
REMARK    2  A    between atoms: _3  and  _4
REMARK    3  A    between atoms: _3  and  _6
REMARK    4  A    between atoms: _6  and  _7
REMARK    5  A    between atoms: _7  and  _8
REMARK    6  A    between atoms: _8  and  _9
REMARK    7  A    between atoms: _9  and  _10
REMARK    8  A    between atoms: _14  and  _16
REMARK    9  A    between atoms: _16  and  _17
REMARK   10  A    between atoms: _16  and  _19
REMARK   11  A    between atoms: _19  and  _20
REMARK   12  A    between atoms: _23  and  _25
REMARK   13  A    between atoms: _25  and  _26
REMARK   14  A    between atoms: _25  and  _28
REMARK   15  A    between atoms: _28  and  _29
REMARK   16  A    between atoms: _32  and  _34
REMARK   17  A    between atoms: _34  and  _35
REMARK   18  A    between atoms: _34  and  _37
REMARK   19  A    between atoms: _37  and  _38
REMARK   20  A    between atoms: _41  and  _43
REMARK   21  A    between atoms: _43  and  _44
REMARK   22  A    between atoms: _43  and  _46
REMARK   23  A    between atoms: _46  and  _47
REMARK   24  A    between atoms: _47  and  _48
REMARK   25  A    between atoms: _48  and  _49
REMARK   26  A    between atoms: _58  and  _60
REMARK   27  A    between atoms: _60  and  _61
REMARK   28  A    between atoms: _60  and  _63
REMARK   29  A    between atoms: _63  and  _64
REMARK   30  A    between atoms: _66  and  _68
REMARK   31  A    between atoms: _68  and  _69
REMARK   32  A    between atoms: _68  and  _71
REMARK   33  A    between atoms: _71  and  _72
REMARK   34  A    between atoms: _75  and  _77
REMARK   35  A    between atoms: _77  and  _78
REMARK   36  A    between atoms: _77  and  _80
REMARK   37  A    between atoms: _80  and  _81
REMARK   38  A    between atoms: _84  and  _86
REMARK   39  A    between atoms: _86  and  _87
REMARK   40  A    between atoms: _86  and  _89
REMARK   41  A    between atoms: _92  and  _94
REMARK   42  A    between atoms: _94  and  _95
REMARK   43  A    between atoms: _98  and  _100
REMARK   44  A    between atoms: _100  and  _101
REMARK   45  A    between atoms: _100  and  _103
REMARK   46  A    between atoms: _103  and  _104
REMARK   47  A    between atoms: _104  and  _105
REMARK   48  A    between atoms: _105  and  _106
REMARK   49  A    between atoms: _115  and  _117
REMARK   50  A    between atoms: _117  and  _118
REMARK   51  A    between atoms: _117  and  _120
REMARK   52  A    between atoms: _122  and  _124
REMARK   53  A    between atoms: _124  and  _125
REMARK   54  A    between atoms: _124  and  _127
REMARK   55  A    between atoms: _127  and  _128
REMARK   56  A    between atoms: _128  and  _129
REMARK   57  A    between atoms: _129  and  _130
REMARK   58  A    between atoms: _139  and  _141
REMARK   59  A    between atoms: _141  and  _142
REMARK   60  A    between atoms: _141  and  _144
REMARK   61  A    between atoms: _144  and  _145
REMARK   62  A    between atoms: _145  and  _146
REMARK   63  A    between atoms: _146  and  _147
REMARK   64  A    between atoms: _156  and  _158
REMARK   65  A    between atoms: _158  and  _159
REMARK   66  A    between atoms: _158  and  _161
REMARK   67  A    between atoms: _161  and  _162
REMARK   68  A    between atoms: _167  and  _169
REMARK   69  A    between atoms: _169  and  _170
REMARK   70  A    between atoms: _169  and  _172
REMARK   71  A    between atoms: _172  and  _173
REMARK   72  A    between atoms: _178  and  _179
REMARK   73  A    between atoms: _181  and  _183
REMARK   74  A    between atoms: _183  and  _184
REMARK   75  A    between atoms: _183  and  _186
REMARK   76  A    between atoms: _186  and  _187
REMARK   77  A    between atoms: _192  and  _194
REMARK   78  A    between atoms: _194  and  _195
REMARK   79  A    between atoms: _194  and  _197
REMARK   80  A    between atoms: _197  and  _198
REMARK   81  A    between atoms: _201  and  _203
REMARK   82  A    between atoms: _203  and  _204
REMARK   83  A    between atoms: _206  and  _208
REMARK   84  A    between atoms: _208  and  _209
REMARK   85  A    between atoms: _208  and  _211
REMARK   86  A    between atoms: _211  and  _212
REMARK   87  A    between atoms: _212  and  _213
REMARK   88  A    between atoms: _215  and  _217
REMARK   89  A    between atoms: _217  and  _218
REMARK   90  A    between atoms: _217  and  _220
REMARK   91  A    between atoms: _220  and  _221
REMARK   92  A    between atoms: _226  and  _227
REMARK   93  A    between atoms: _229  and  _231
REMARK   94  A    between atoms: _231  and  _232
REMARK   95  A    between atoms: _231  and  _234
REMARK   96  A    between atoms: _234  and  _235
REMARK   97  A    between atoms: _237  and  _239
REMARK   98  A    between atoms: _239  and  _240
REMARK   99  A    between atoms: _239  and  _242
REMARK  100  A    between atoms: _242  and  _243
REMARK  101  A    between atoms: _246  and  _248
REMARK  102  A    between atoms: _248  and  _249
REMARK  103  A    between atoms: _248  and  _251
REMARK  104  A    between atoms: _251  and  _252
REMARK  105  A    between atoms: _257  and  _259
REMARK  106  A    between atoms: _259  and  _260
REMARK  107  A    between atoms: _259  and  _262
REMARK  108  A    between atoms: _262  and  _263
REMARK  109  A    between atoms: _263  and  _264
REMARK  110  A    between atoms: _267  and  _269
REMARK  111  A    between atoms: _269  and  _270
REMARK  112  A    between atoms: _273  and  _275
REMARK  113  A    between atoms: _275  and  _276
REMARK  114  A    between atoms: _275  and  _278
REMARK  115  A    between atoms: _278  and  _279
REMARK  116  A    between atoms: _282  and  _284
REMARK  117  A    between atoms: _284  and  _285
REMARK  118  A    between atoms: _284  and  _287
REMARK  119  A    between atoms: _287  and  _288
REMARK  120  A    between atoms: _293  and  _295
REMARK  121  A    between atoms: _295  and  _296
REMARK  122  A    between atoms: _298  and  _300
REMARK  123  A    between atoms: _300  and  _301
REMARK  124  A    between atoms: _300  and  _303
REMARK  125  A    between atoms: _303  and  _304
REMARK  126  A    between atoms: _307  and  _309
REMARK  127  A    between atoms: _309  and  _310
REMARK  128  A    between atoms: _309  and  _312
REMARK  129  A    between atoms: _312  and  _313
REMARK  130  A    between atoms: _313  and  _314
REMARK  131  A    between atoms: _314  and  _315
REMARK  132  A    between atoms: _315  and  _316
REMARK  133  A    between atoms: _320  and  _322
REMARK  134  A    between atoms: _322  and  _323
REMARK  135  A    between atoms: _322  and  _325
REMARK  136  A    between atoms: _325  and  _326
REMARK  137  A    between atoms: _331  and  _333
REMARK  138  A    between atoms: _333  and  _334
REMARK  139  A    between atoms: _333  and  _336
REMARK  140  A    between atoms: _336  and  _337
REMARK  141  A    between atoms: _340  and  _342
REMARK  142  A    between atoms: _342  and  _343
REMARK  143  A    between atoms: _342  and  _345
REMARK  144  A    between atoms: _345  and  _346
REMARK  145  A    between atoms: _346  and  _347
REMARK  146  A    between atoms: _349  and  _351
REMARK  147  A    between atoms: _351  and  _352
REMARK  148  A    between atoms: _351  and  _354
REMARK  149  A    between atoms: _354  and  _355
REMARK  150  A    between atoms: _358  and  _360
REMARK  151  A    between atoms: _360  and  _361
REMARK  152  A    between atoms: _360  and  _363
REMARK  153  A    between atoms: _363  and  _364
REMARK  154  A    between atoms: _367  and  _369
REMARK  155  A    between atoms: _369  and  _370
REMARK                            x       y       z     vdW  Elec       q    Type
REMARK                         _______ _______ _______ _____ _____    ______ ____
ROOT
ATOM      1  CB  ASN A   1      85.755  63.303  12.229  0.00  0.00    +0.110 C 
ENDROOT
BRANCH   1   2
ATOM      2  CG  ASN A   1      86.019  63.917  10.864  0.00  0.00    +0.221 C 
ATOM      3  ND2 ASN A   1      87.269  63.773  10.442  0.00  0.00    -0.329 N 
ATOM      4 HD21 ASN A   1      87.959  63.259  11.026  0.00  0.00    +0.145 HD
ATOM      5 HD22 ASN A   1      87.558  64.174   9.527  0.00  0.00    +0.145 HD
ATOM      6  OD1 ASN A   1      85.157  64.517  10.213  0.00  0.00    -0.275 OA
ENDBRANCH   1   2
BRANCH   1   7
ATOM      7  CA  ASN A   1      85.839  64.347  13.353  0.00  0.00    +0.142 C 
BRANCH   7   8
ATOM      8  N   ASN A   1      87.143  64.967  13.361  0.00  0.00    -0.239 NA
ATOM      9  H   ASN A   1      87.985  64.367  13.470  0.00  0.00    +0.142 HD
ENDBRANCH   7   8
BRANCH   7  10
ATOM     10  C   ASN A   1      85.770  63.705  14.730  0.00  0.00    +0.225 C 
ATOM     11  O   ASN A   1      86.539  62.810  15.056  0.00  0.00    -0.287 OA
ENDBRANCH   7  10
ENDBRANCH   1   7
TORSDOF 4
REMARK  Name = ../refined-set-2016/1grp/1grp_pocket.pdb
REMARK  155 active torsions:
REMARK  status: ('A' for Active; 'I' for Inactive)
REMARK    1  A    between atoms: _1  and  _3
REMARK    2  A    between atoms: _3  and  _4
REMARK    3  A    between atoms: _3  and  _6
REMARK    4  A    between atoms: _6  and  _7
REMARK    5  A    between atoms: _7  and  _8
REMARK    6  A    between atoms: _8  and  _9
REMARK    7  A    between atoms: _9  and  _10
REMARK    8  A    between atoms: _14  and  _16
REMARK    9  A    between atoms: _16  and  _17
REMARK   10  A    between atoms: _16  and  _19
REMARK   11  A    between atoms: _19  and  _20
REMARK   12  A    between atoms: _23  and  _25
REMARK   13  A    between atoms: _25  and  _26
REMARK   14  A    between atoms: _25  and  _28
REMARK   15  A    between atoms: _28  and  _29
REMARK   16  A    between atoms: _32  and  _34
REMARK   17  A    between atoms: _34  and  _35
REMARK   18  A    between atoms: _34  and  _37
REMARK   19  A    between atoms: _37  and  _38
REMARK   20  A    between atoms: _41  and  _43
REMARK   21  A    between atoms: _43  and  _44
REMARK   22  A    between atoms: _43  and  _46
REMARK   23  A    between atoms: _46  and  _47
REMARK   24  A    between atoms: _47  and  _48
REMARK   25  A    between atoms: _48  and  _49
REMARK   26  A    between atoms: _58  and  _60
REMARK   27  A    between atoms: _60  and  _61
REMARK   28  A    between atoms: _60  and  _63
REMARK   29  A    between atoms: _63  and  _64
REMARK   30  A    between atoms: _66  and  _68
REMARK   31  A    between atoms: _68  and  _69
REMARK   32  A    between atoms: _68  and  _71
REMARK   33  A    between atoms: _71  and  _72
REMARK   34  A    between atoms: _75  and  _77
REMARK   35  A    between atoms: _77  and  _78
REMARK   36  A    between atoms: _77  and  _80
REMARK   37  A    between atoms: _80  and  _81
REMARK   38  A    between atoms: _84  and  _86
REMARK   39  A    between atoms: _86  and  _87
REMARK   40  A    between atoms: _86  and  _89
REMARK   41  A    between atoms: _92  and  _94
REMARK   42  A    between atoms: _94  and  _95
REMARK   43  A    between atoms: _98  and  _100
REMARK   44  A    between atoms: _100  and  _101
REMARK   45  A    between atoms: _100  and  _103
REMARK   46  A    between atoms: _103  and  _104
REMARK   47  A    between atoms: _104  and  _105
REMARK   48  A    between atoms: _105  and  _106
REMARK   49  A    between atoms: _115  and  _117
REMARK   50  A    between atoms: _117  and  _118
REMARK   51  A    between atoms: _117  and  _120
REMARK   52  A    between atoms: _122  and  _124
REMARK   53  A    between atoms: _124  and  _125
REMARK   54  A    between atoms: _124  and  _127
REMARK   55  A    between atoms: _127  and  _128
REMARK   56  A    between atoms: _128  and  _129
REMARK   57  A    between atoms: _129  and  _130
REMARK   58  A    between atoms: _139  and  _141
REMARK   59  A    between atoms: _141  and  _142
REMARK   60  A    between atoms: _141  and  _144
REMARK   61  A    between atoms: _144  and  _145
REMARK   62  A    between atoms: _145  and  _146
REMARK   63  A    between atoms: _146  and  _147
REMARK   64  A    between atoms: _156  and  _158
REMARK   65  A    between atoms: _158  and  _159
REMARK   66  A    between atoms: _158  and  _161
REMARK   67  A    between atoms: _161  and  _162
REMARK   68  A    between atoms: _167  and  _169
REMARK   69  A    between atoms: _169  and  _170
REMARK   70  A    between atoms: _169  and  _172
REMARK   71  A    between atoms: _172  and  _173
REMARK   72  A    between atoms: _178  and  _179
REMARK   73  A    between atoms: _181  and  _183
REMARK   74  A    between atoms: _183  and  _184
REMARK   75  A    between atoms: _183  and  _186
REMARK   76  A    between atoms: _186  and  _187
REMARK   77  A    between atoms: _192  and  _194
REMARK   78  A    between atoms: _194  and  _195
REMARK   79  A    between atoms: _194  and  _197
REMARK   80  A    between atoms: _197  and  _198
REMARK   81  A    between atoms: _201  and  _203
REMARK   82  A    between atoms: _203  and  _204
REMARK   83  A    between atoms: _206  and  _208
REMARK   84  A    between atoms: _208  and  _209
REMARK   85  A    between atoms: _208  and  _211
REMARK   86  A    between atoms: _211  and  _212
REMARK   87  A    between atoms: _212  and  _213
REMARK   88  A    between atoms: _215  and  _217
REMARK   89  A    between atoms: _217  and  _218
REMARK   90  A    between atoms: _217  and  _220
REMARK   91  A    between atoms: _220  and  _221
REMARK   92  A    between atoms: _226  and  _227
REMARK   93  A    between atoms: _229  and  _231
REMARK   94  A    between atoms: _231  and  _232
REMARK   95  A    between atoms: _231  and  _234
REMARK   96  A    between atoms: _234  and  _235
REMARK   97  A    between atoms: _237  and  _239
REMARK   98  A    between atoms: _239  and  _240
REMARK   99  A    between atoms: _239  and  _242
REMARK  100  A    between atoms: _242  and  _243
REMARK  101  A    between atoms: _246  and  _248
REMARK  102  A    between atoms: _248  and  _249
REMARK  103  A    between atoms: _248  and  _251
REMARK  104  A    between atoms: _251  and  _252
REMARK  105  A    between atoms: _257  and  _259
REMARK  106  A    between atoms: _259  and  _260
REMARK  107  A    between atoms: _259  and  _262
REMARK  108  A    between atoms: _262  and  _263
REMARK  109  A    between atoms: _263  and  _264
REMARK  110  A    between atoms: _267  and  _269
REMARK  111  A    between atoms: _269  and  _270
REMARK  112  A    between atoms: _273  and  _275
REMARK  113  A    between atoms: _275  and  _276
REMARK  114  A    between atoms: _275  and  _278
REMARK  115  A    between atoms: _278  and  _279
REMARK  116  A    between atoms: _282  and  _284
REMARK  117  A    between atoms: _284  and  _285
REMARK  118  A    between atoms: _284  and  _287
REMARK  119  A    between atoms: _287  and  _288
REMARK  120  A    between atoms: _293  and  _295
REMARK  121  A    between atoms: _295  and  _296
REMARK  122  A    between atoms: _298  and  _300
REMARK  123  A    between atoms: _300  and  _301
REMARK  124  A    between atoms: _300  and  _303
REMARK  125  A    between atoms: _303  and  _304
REMARK  126  A    between atoms: _307  and  _309
REMARK  127  A    between atoms: _309  and  _310
REMARK  128  A    between atoms: _309  and  _312
REMARK  129  A    between atoms: _312  and  _313
REMARK  130  A    between atoms: _313  and  _314
REMARK  131  A    between atoms: _314  and  _315
REMARK  132  A    between atoms: _315  and  _316
REMARK  133  A    between atoms: _320  and  _322
REMARK  134  A    between atoms: _322  and  _323
REMARK  135  A    between atoms: _322  and  _325
REMARK  136  A    between atoms: _325  and  _326
REMARK  137  A    between atoms: _331  and  _333
REMARK  138  A    between atoms: _333  and  _334
REMARK  139  A    between atoms: _333  and  _336
REMARK  140  A    between atoms: _336  and  _337
REMARK  141  A    between atoms: _340  and  _342
REMARK  142  A    between atoms: _342  and  _343
REMARK  143  A    between atoms: _342  and  _345
REMARK  144  A    between atoms: _345  and  _346
REMARK  145  A    between atoms: _346  and  _347
REMARK  146  A    between atoms: _349  and  _351
REMARK  147  A    between atoms: _351  and  _352
REMARK  148  A    between atoms: _351  and  _354
REMARK  149  A    between atoms: _354  and  _355
REMARK  150  A    between atoms: _358  and  _360
REMARK  151  A    between atoms: _360  and  _361
REMARK  152  A    between atoms: _360  and  _363
REMARK  153  A    between atoms: _363  and  _364
REMARK  154  A    between atoms: _367  and  _369
REMARK  155  A    between atoms: _369  and  _370
REMARK                            x       y       z     vdW  Elec       q    Type
REMARK                         _______ _______ _______ _____ _____    ______ ____
ROOT
ATOM      1  C   THR A   3      91.580  68.806   3.470  0.00  0.00    +0.243 C 
ATOM      2  N   HIS A   4      92.768  68.717   2.874  0.00  0.00    -0.297 N 
ATOM      3  H   HIS A   4      93.611  68.544   3.459  0.00  0.00    +0.150 HD
ATOM      4  O   THR A   3      90.581  69.091   2.810  0.00  0.00    -0.273 OA
ENDROOT
BRANCH   2   5
ATOM      5  CA  HIS A   4      92.929  68.853   1.435  0.00  0.00    +0.155 C 
BRANCH   5   6
ATOM      6  C   HIS A   4      92.847  67.503   0.685  0.00  0.00    +0.241 C 
ATOM      7  O   HIS A   4      92.756  66.425   1.277  0.00  0.00    -0.273 OA
ATOM      8  N   GLY A   5      92.986  67.515  -0.645  0.00  0.00    -0.295 N 
ATOM      9  H   GLY A   5      93.132  68.423  -1.130  0.00  0.00    +0.150 HD
BRANCH   8  10
ATOM     10  CA  GLY A   5      92.939  66.295  -1.430  0.00  0.00    +0.176 C 
BRANCH  10  11
ATOM     11  C   GLY A   5      94.263  65.576  -1.626  0.00  0.00    +0.243 C 
ATOM     12  O   GLY A   5      95.315  65.861  -1.037  0.00  0.00    -0.273 OA
ATOM     13  N   THR A   6      94.185  64.560  -2.478  0.00  0.00    -0.296 N 
ATOM     14  H   THR A   6      93.292  64.368  -2.976  0.00  0.00    +0.150 HD
BRANCH  13  15
ATOM     15  CA  THR A   6      95.340  63.719  -2.715  0.00  0.00    +0.164 C 
BRANCH  15  16
ATOM     16  C   THR A   6      96.378  64.263  -3.663  0.00  0.00    +0.229 C 
ATOM     17  O   THR A   6      97.519  63.830  -3.599  0.00  0.00    -0.286 OA
ENDBRANCH  15  16
BRANCH  15  18
ATOM     18  CB  THR A   6      94.869  62.368  -3.205  0.00  0.00    +0.136 C 
ATOM     19  CG2 THR A   6      94.081  61.603  -2.141  0.00  0.00    +0.034 C 
BRANCH  18  20
ATOM     20  OG1 THR A   6      94.116  62.628  -4.375  0.00  0.00    -0.382 OA
ATOM     21  HG1 THR A   6      93.778  61.774  -4.745  0.00  0.00    +0.210 HD
ENDBRANCH  18  20
ENDBRANCH  15  18
ENDBRANCH  13  15
ENDBRANCH  10  11
ENDBRANCH   8  10
ENDBRANCH   5   6
BRANCH   5  22
ATOM     22  CB  HIS A   4      94.279  69.516   1.179  0.00  0.00    +0.076 C 
BRANCH  22  23
ATOM     23  CG  HIS A   4      95.405  68.649   1.706  0.00  0.00    +0.082 A 
ATOM     24  CD2 HIS A   4      96.155  68.947   2.797  0.00  0.00    +0.115 A 
ATOM     25  NE2 HIS A   4      96.922  67.909   2.980  0.00  0.00    -0.221 NA
ATOM     26  CE1 HIS A   4      96.702  66.998   2.076  0.00  0.00    +0.199 A 
ATOM     27  ND1 HIS A   4      95.773  67.450   1.283  0.00  0.00    -0.227 NA
ENDBRANCH  22  23
ENDBRANCH   5  22
ENDBRANCH   2   5
BRANCH   1  28
ATOM     28  CA  THR A   3      91.468  68.574   4.986  0.00  0.00    +0.176 C 
BRANCH  28  30
ATOM     29  C   ALA A   2      93.017  66.913   5.820  0.00  0.00    +0.241 C 
ATOM     30  N   THR A   3      92.701  68.187   5.638  0.00  0.00    -0.295 N 
ATOM     31  H   THR A   3      93.353  68.925   5.971  0.00  0.00    +0.150 HD
ATOM     32  O   ALA A   2      92.262  65.991   5.494  0.00  0.00    -0.273 OA
BRANCH  29  33
ATOM     33  CA  ALA A   2      94.340  66.625   6.518  0.00  0.00    +0.149 C 
ATOM     34  CB  ALA A   2      95.314  66.111   5.485  0.00  0.00    +0.031 C 
BRANCH  33  37
ATOM     35  C   GLU A   1      93.272  65.927   8.565  0.00  0.00    +0.238 C 
ATOM     36  O   GLU A   1      93.015  67.103   8.875  0.00  0.00    -0.274 OA
ATOM     37  N   ALA A   2      93.987  65.600   7.481  0.00  0.00    -0.297 N 
ATOM     38  H   ALA A   2      94.288  64.616   7.331  0.00  0.00    +0.150 HD
BRANCH  35  39
ATOM     39  CA  GLU A   1      92.751  64.711   9.332  0.00  0.00    +0.145 C 
BRANCH  39  40
ATOM     40  N   GLU A   1      92.439  64.869  10.745  0.00  0.00    -0.238 NA
ATOM     41  H   GLU A   1      92.258  65.824  11.116  0.00  0.00    +0.142 HD
ENDBRANCH  39  40
BRANCH  39  42
ATOM     42  CB  GLU A   1      91.512  64.228   8.602  0.00  0.00    +0.038 C 
BRANCH  42  43
ATOM     43  CG  GLU A   1      90.411  65.293   8.626  0.00  0.00    +0.116 C 
BRANCH  43  44
ATOM     44  CD  GLU A   1      89.125  64.995   7.857  0.00  0.00    +0.365 C 
ATOM     45  OE2 GLU A   1      88.109  65.601   8.194  0.00  0.00    -0.246 OA
ATOM     46  OE1 GLU A   1      89.128  64.186   6.931  0.00  0.00    -0.246 OA
ENDBRANCH  43  44
ENDBRANCH  42  43
ENDBRANCH  39  42
ENDBRANCH  35  39
ENDBRANCH  33  37
ENDBRANCH  29  33
ENDBRANCH  28  30
BRANCH  28  47
ATOM     47  CB  THR A   3      90.955  69.824   5.689  0.00  0.00    +0.137 C 
ATOM     48  CG2 THR A   3      90.693  69.615   7.173  0.00  0.00    +0.034 C 
BRANCH  47  49
ATOM     49  OG1 THR A   3      91.943  70.805   5.464  0.00  0.00    -0.382 OA
ATOM     50  HG1 THR A   3      92.803  70.499   5.846  0.00  0.00    +0.210 HD
ENDBRANCH  47  49
ENDBRANCH  28  47
ENDBRANCH   1  28
TORSDOF 21
REMARK  Name = ../refined-set-2016/1grp/1grp_pocket.pdb
REMARK  155 active torsions:
REMARK  status: ('A' for Active; 'I' for Inactive)
REMARK    1  A    between atoms: _1  and  _3
REMARK    2  A    between atoms: _3  and  _4
REMARK    3  A    between atoms: _3  and  _6
REMARK    4  A    between atoms: _6  and  _7
REMARK    5  A    between atoms: _7  and  _8
REMARK    6  A    between atoms: _8  and  _9
REMARK    7  A    between atoms: _9  and  _10
REMARK    8  A    between atoms: _14  and  _16
REMARK    9  A    between atoms: _16  and  _17
REMARK   10  A    between atoms: _16  and  _19
REMARK   11  A    between atoms: _19  and  _20
REMARK   12  A    between atoms: _23  and  _25
REMARK   13  A    between atoms: _25  and  _26
REMARK   14  A    between atoms: _25  and  _28
REMARK   15  A    between atoms: _28  and  _29
REMARK   16  A    between atoms: _32  and  _34
REMARK   17  A    between atoms: _34  and  _35
REMARK   18  A    between atoms: _34  and  _37
REMARK   19  A    between atoms: _37  and  _38
REMARK   20  A    between atoms: _41  and  _43
REMARK   21  A    between atoms: _43  and  _44
REMARK   22  A    between atoms: _43  and  _46
REMARK   23  A    between atoms: _46  and  _47
REMARK   24  A    between atoms: _47  and  _48
REMARK   25  A    between atoms: _48  and  _49
REMARK   26  A    between atoms: _58  and  _60
REMARK   27  A    between atoms: _60  and  _61
REMARK   28  A    between atoms: _60  and  _63
REMARK   29  A    between atoms: _63  and  _64
REMARK   30  A    between atoms: _66  and  _68
REMARK   31  A    between atoms: _68  and  _69
REMARK   32  A    between atoms: _68  and  _71
REMARK   33  A    between atoms: _71  and  _72
REMARK   34  A    between atoms: _75  and  _77
REMARK   35  A    between atoms: _77  and  _78
REMARK   36  A    between atoms: _77  and  _80
REMARK   37  A    between atoms: _80  and  _81
REMARK   38  A    between atoms: _84  and  _86
REMARK   39  A    between atoms: _86  and  _87
REMARK   40  A    between atoms: _86  and  _89
REMARK   41  A    between atoms: _92  and  _94
REMARK   42  A    between atoms: _94  and  _95
REMARK   43  A    between atoms: _98  and  _100
REMARK   44  A    between atoms: _100  and  _101
REMARK   45  A    between atoms: _100  and  _103
REMARK   46  A    between atoms: _103  and  _104
REMARK   47  A    between atoms: _104  and  _105
REMARK   48  A    between atoms: _105  and  _106
REMARK   49  A    between atoms: _115  and  _117
REMARK   50  A    between atoms: _117  and  _118
REMARK   51  A    between atoms: _117  and  _120
REMARK   52  A    between atoms: _122  and  _124
REMARK   53  A    between atoms: _124  and  _125
REMARK   54  A    between atoms: _124  and  _127
REMARK   55  A    between atoms: _127  and  _128
REMARK   56  A    between atoms: _128  and  _129
REMARK   57  A    between atoms: _129  and  _130
REMARK   58  A    between atoms: _139  and  _141
REMARK   59  A    between atoms: _141  and  _142
REMARK   60  A    between atoms: _141  and  _144
REMARK   61  A    between atoms: _144  and  _145
REMARK   62  A    between atoms: _145  and  _146
REMARK   63  A    between atoms: _146  and  _147
REMARK   64  A    between atoms: _156  and  _158
REMARK   65  A    between atoms: _158  and  _159
REMARK   66  A    between atoms: _158  and  _161
REMARK   67  A    between atoms: _161  and  _162
REMARK   68  A    between atoms: _167  and  _169
REMARK   69  A    between atoms: _169  and  _170
REMARK   70  A    between atoms: _169  and  _172
REMARK   71  A    between atoms: _172  and  _173
REMARK   72  A    between atoms: _178  and  _179
REMARK   73  A    between atoms: _181  and  _183
REMARK   74  A    between atoms: _183  and  _184
REMARK   75  A    between atoms: _183  and  _186
REMARK   76  A    between atoms: _186  and  _187
REMARK   77  A    between atoms: _192  and  _194
REMARK   78  A    between atoms: _194  and  _195
REMARK   79  A    between atoms: _194  and  _197
REMARK   80  A    between atoms: _197  and  _198
REMARK   81  A    between atoms: _201  and  _203
REMARK   82  A    between atoms: _203  and  _204
REMARK   83  A    between atoms: _206  and  _208
REMARK   84  A    between atoms: _208  and  _209
REMARK   85  A    between atoms: _208  and  _211
REMARK   86  A    between atoms: _211  and  _212
REMARK   87  A    between atoms: _212  and  _213
REMARK   88  A    between atoms: _215  and  _217
REMARK   89  A    between atoms: _217  and  _218
REMARK   90  A    between atoms: _217  and  _220
REMARK   91  A    between atoms: _220  and  _221
REMARK   92  A    between atoms: _226  and  _227
REMARK   93  A    between atoms: _229  and  _231
REMARK   94  A    between atoms: _231  and  _232
REMARK   95  A    between atoms: _231  and  _234
REMARK   96  A    between atoms: _234  and  _235
REMARK   97  A    between atoms: _237  and  _239
REMARK   98  A    between atoms: _239  and  _240
REMARK   99  A    between atoms: _239  and  _242
REMARK  100  A    between atoms: _242  and  _243
REMARK  101  A    between atoms: _246  and  _248
REMARK  102  A    between atoms: _248  and  _249
REMARK  103  A    between atoms: _248  and  _251
REMARK  104  A    between atoms: _251  and  _252
REMARK  105  A    between atoms: _257  and  _259
REMARK  106  A    between atoms: _259  and  _260
REMARK  107  A    between atoms: _259  and  _262
REMARK  108  A    between atoms: _262  and  _263
REMARK  109  A    between atoms: _263  and  _264
REMARK  110  A    between atoms: _267  and  _269
REMARK  111  A    between atoms: _269  and  _270
REMARK  112  A    between atoms: _273  and  _275
REMARK  113  A    between atoms: _275  and  _276
REMARK  114  A    between atoms: _275  and  _278
REMARK  115  A    between atoms: _278  and  _279
REMARK  116  A    between atoms: _282  and  _284
REMARK  117  A    between atoms: _284  and  _285
REMARK  118  A    between atoms: _284  and  _287
REMARK  119  A    between atoms: _287  and  _288
REMARK  120  A    between atoms: _293  and  _295
REMARK  121  A    between atoms: _295  and  _296
REMARK  122  A    between atoms: _298  and  _300
REMARK  123  A    between atoms: _300  and  _301
REMARK  124  A    between atoms: _300  and  _303
REMARK  125  A    between atoms: _303  and  _304
REMARK  126  A    between atoms: _307  and  _309
REMARK  127  A    between atoms: _309  and  _310
REMARK  128  A    between atoms: _309  and  _312
REMARK  129  A    between atoms: _312  and  _313
REMARK  130  A    between atoms: _313  and  _314
REMARK  131  A    between atoms: _314  and  _315
REMARK  132  A    between atoms: _315  and  _316
REMARK  133  A    between atoms: _320  and  _322
REMARK  134  A    between atoms: _322  and  _323
REMARK  135  A    between atoms: _322  and  _325
REMARK  136  A    between atoms: _325  and  _326
REMARK  137  A    between atoms: _331  and  _333
REMARK  138  A    between atoms: _333  and  _334
REMARK  139  A    between atoms: _333  and  _336
REMARK  140  A    between atoms: _336  and  _337
REMARK  141  A    between atoms: _340  and  _342
REMARK  142  A    between atoms: _342  and  _343
REMARK  143  A    between atoms: _342  and  _345
REMARK  144  A    between atoms: _345  and  _346
REMARK  145  A    between atoms: _346  and  _347
REMARK  146  A    between atoms: _349  and  _351
REMARK  147  A    between atoms: _351  and  _352
REMARK  148  A    between atoms: _351  and  _354
REMARK  149  A    between atoms: _354  and  _355
REMARK  150  A    between atoms: _358  and  _360
REMARK  151  A    between atoms: _360  and  _361
REMARK  152  A    between atoms: _360  and  _363
REMARK  153  A    between atoms: _363  and  _364
REMARK  154  A    between atoms: _367  and  _369
REMARK  155  A    between atoms: _369  and  _370
REMARK                            x       y       z     vdW  Elec       q    Type
REMARK                         _______ _______ _______ _____ _____    ______ ____
ROOT
ATOM      1  CG  LYS A   1      78.600  68.579  -2.613  0.00  0.00    -0.000 C 
ENDROOT
BRANCH   1   2
ATOM      2  CB  LYS A   1      77.884  69.220  -3.810  0.00  0.00    +0.025 C 
BRANCH   2   3
ATOM      3  CA  LYS A   1      78.463  68.796  -5.160  0.00  0.00    +0.133 C 
BRANCH   3   4
ATOM      4  N   LYS A   1      77.831  69.604  -6.191  0.00  0.00    -0.239 NA
ATOM      5  H   LYS A   1      76.794  69.657  -6.242  0.00  0.00    +0.142 HD
ENDBRANCH   3   4
BRANCH   3   6
ATOM      6  C   LYS A   1      78.140  67.337  -5.530  0.00  0.00    +0.224 C 
ATOM      7  O   LYS A   1      77.676  66.509  -4.752  0.00  0.00    -0.287 OA
ENDBRANCH   3   6
ENDBRANCH   2   3
ENDBRANCH   1   2
BRANCH   1   8
ATOM      8  CD  LYS A   1      80.080  68.923  -2.509  0.00  0.00    -0.024 C 
BRANCH   8   9
ATOM      9  CE  LYS A   1      80.645  68.100  -1.368  0.00  0.00    -0.086 C 
BRANCH   9  10
ATOM     10  NZ  LYS A   1      82.068  68.330  -1.146  0.00  0.00    +0.380 N 
ATOM     11  HZ1 LYS A   1      82.394  67.739  -0.354  0.00  0.00    -0.089 HD
ATOM     12  HZ2 LYS A   1      82.225  69.333  -0.919  0.00  0.00    -0.089 HD
ATOM     13  HZ3 LYS A   1      82.597  68.081  -2.006  0.00  0.00    -0.089 HD
ENDBRANCH   9  10
ENDBRANCH   8   9
ENDBRANCH   1   8
TORSDOF 7
REMARK  Name = ../refined-set-2016/1grp/1grp_pocket.pdb
REMARK  155 active torsions:
REMARK  status: ('A' for Active; 'I' for Inactive)
REMARK    1  A    between atoms: _1  and  _3
REMARK    2  A    between atoms: _3  and  _4
REMARK    3  A    between atoms: _3  and  _6
REMARK    4  A    between atoms: _6  and  _7
REMARK    5  A    between atoms: _7  and  _8
REMARK    6  A    between atoms: _8  and  _9
REMARK    7  A    between atoms: _9  and  _10
REMARK    8  A    between atoms: _14  and  _16
REMARK    9  A    between atoms: _16  and  _17
REMARK   10  A    between atoms: _16  and  _19
REMARK   11  A    between atoms: _19  and  _20
REMARK   12  A    between atoms: _23  and  _25
REMARK   13  A    between atoms: _25  and  _26
REMARK   14  A    between atoms: _25  and  _28
REMARK   15  A    between atoms: _28  and  _29
REMARK   16  A    between atoms: _32  and  _34
REMARK   17  A    between atoms: _34  and  _35
REMARK   18  A    between atoms: _34  and  _37
REMARK   19  A    between atoms: _37  and  _38
REMARK   20  A    between atoms: _41  and  _43
REMARK   21  A    between atoms: _43  and  _44
REMARK   22  A    between atoms: _43  and  _46
REMARK   23  A    between atoms: _46  and  _47
REMARK   24  A    between atoms: _47  and  _48
REMARK   25  A    between atoms: _48  and  _49
REMARK   26  A    between atoms: _58  and  _60
REMARK   27  A    between atoms: _60  and  _61
REMARK   28  A    between atoms: _60  and  _63
REMARK   29  A    between atoms: _63  and  _64
REMARK   30  A    between atoms: _66  and  _68
REMARK   31  A    between atoms: _68  and  _69
REMARK   32  A    between atoms: _68  and  _71
REMARK   33  A    between atoms: _71  and  _72
REMARK   34  A    between atoms: _75  and  _77
REMARK   35  A    between atoms: _77  and  _78
REMARK   36  A    between atoms: _77  and  _80
REMARK   37  A    between atoms: _80  and  _81
REMARK   38  A    between atoms: _84  and  _86
REMARK   39  A    between atoms: _86  and  _87
REMARK   40  A    between atoms: _86  and  _89
REMARK   41  A    between atoms: _92  and  _94
REMARK   42  A    between atoms: _94  and  _95
REMARK   43  A    between atoms: _98  and  _100
REMARK   44  A    between atoms: _100  and  _101
REMARK   45  A    between atoms: _100  and  _103
REMARK   46  A    between atoms: _103  and  _104
REMARK   47  A    between atoms: _104  and  _105
REMARK   48  A    between atoms: _105  and  _106
REMARK   49  A    between atoms: _115  and  _117
REMARK   50  A    between atoms: _117  and  _118
REMARK   51  A    between atoms: _117  and  _120
REMARK   52  A    between atoms: _122  and  _124
REMARK   53  A    between atoms: _124  and  _125
REMARK   54  A    between atoms: _124  and  _127
REMARK   55  A    between atoms: _127  and  _128
REMARK   56  A    between atoms: _128  and  _129
REMARK   57  A    between atoms: _129  and  _130
REMARK   58  A    between atoms: _139  and  _141
REMARK   59  A    between atoms: _141  and  _142
REMARK   60  A    between atoms: _141  and  _144
REMARK   61  A    between atoms: _144  and  _145
REMARK   62  A    between atoms: _145  and  _146
REMARK   63  A    between atoms: _146  and  _147
REMARK   64  A    between atoms: _156  and  _158
REMARK   65  A    between atoms: _158  and  _159
REMARK   66  A    between atoms: _158  and  _161
REMARK   67  A    between atoms: _161  and  _162
REMARK   68  A    between atoms: _167  and  _169
REMARK   69  A    between atoms: _169  and  _170
REMARK   70  A    between atoms: _169  and  _172
REMARK   71  A    between atoms: _172  and  _173
REMARK   72  A    between atoms: _178  and  _179
REMARK   73  A    between atoms: _181  and  _183
REMARK   74  A    between atoms: _183  and  _184
REMARK   75  A    between atoms: _183  and  _186
REMARK   76  A    between atoms: _186  and  _187
REMARK   77  A    between atoms: _192  and  _194
REMARK   78  A    between atoms: _194  and  _195
REMARK   79  A    between atoms: _194  and  _197
REMARK   80  A    between atoms: _197  and  _198
REMARK   81  A    between atoms: _201  and  _203
REMARK   82  A    between atoms: _203  and  _204
REMARK   83  A    between atoms: _206  and  _208
REMARK   84  A    between atoms: _208  and  _209
REMARK   85  A    between atoms: _208  and  _211
REMARK   86  A    between atoms: _211  and  _212
REMARK   87  A    between atoms: _212  and  _213
REMARK   88  A    between atoms: _215  and  _217
REMARK   89  A    between atoms: _217  and  _218
REMARK   90  A    between atoms: _217  and  _220
REMARK   91  A    between atoms: _220  and  _221
REMARK   92  A    between atoms: _226  and  _227
REMARK   93  A    between atoms: _229  and  _231
REMARK   94  A    between atoms: _231  and  _232
REMARK   95  A    between atoms: _231  and  _234
REMARK   96  A    between atoms: _234  and  _235
REMARK   97  A    between atoms: _237  and  _239
REMARK   98  A    between atoms: _239  and  _240
REMARK   99  A    between atoms: _239  and  _242
REMARK  100  A    between atoms: _242  and  _243
REMARK  101  A    between atoms: _246  and  _248
REMARK  102  A    between atoms: _248  and  _249
REMARK  103  A    between atoms: _248  and  _251
REMARK  104  A    between atoms: _251  and  _252
REMARK  105  A    between atoms: _257  and  _259
REMARK  106  A    between atoms: _259  and  _260
REMARK  107  A    between atoms: _259  and  _262
REMARK  108  A    between atoms: _262  and  _263
REMARK  109  A    between atoms: _263  and  _264
REMARK  110  A    between atoms: _267  and  _269
REMARK  111  A    between atoms: _269  and  _270
REMARK  112  A    between atoms: _273  and  _275
REMARK  113  A    between atoms: _275  and  _276
REMARK  114  A    between atoms: _275  and  _278
REMARK  115  A    between atoms: _278  and  _279
REMARK  116  A    between atoms: _282  and  _284
REMARK  117  A    between atoms: _284  and  _285
REMARK  118  A    between atoms: _284  and  _287
REMARK  119  A    between atoms: _287  and  _288
REMARK  120  A    between atoms: _293  and  _295
REMARK  121  A    between atoms: _295  and  _296
REMARK  122  A    between atoms: _298  and  _300
REMARK  123  A    between atoms: _300  and  _301
REMARK  124  A    between atoms: _300  and  _303
REMARK  125  A    between atoms: _303  and  _304
REMARK  126  A    between atoms: _307  and  _309
REMARK  127  A    between atoms: _309  and  _310
REMARK  128  A    between atoms: _309  and  _312
REMARK  129  A    between atoms: _312  and  _313
REMARK  130  A    between atoms: _313  and  _314
REMARK  131  A    between atoms: _314  and  _315
REMARK  132  A    between atoms: _315  and  _316
REMARK  133  A    between atoms: _320  and  _322
REMARK  134  A    between atoms: _322  and  _323
REMARK  135  A    between atoms: _322  and  _325
REMARK  136  A    between atoms: _325  and  _326
REMARK  137  A    between atoms: _331  and  _333
REMARK  138  A    between atoms: _333  and  _334
REMARK  139  A    between atoms: _333  and  _336
REMARK  140  A    between atoms: _336  and  _337
REMARK  141  A    between atoms: _340  and  _342
REMARK  142  A    between atoms: _342  and  _343
REMARK  143  A    between atoms: _342  and  _345
REMARK  144  A    between atoms: _345  and  _346
REMARK  145  A    between atoms: _346  and  _347
REMARK  146  A    between atoms: _349  and  _351
REMARK  147  A    between atoms: _351  and  _352
REMARK  148  A    between atoms: _351  and  _354
REMARK  149  A    between atoms: _354  and  _355
REMARK  150  A    between atoms: _358  and  _360
REMARK  151  A    between atoms: _360  and  _361
REMARK  152  A    between atoms: _360  and  _363
REMARK  153  A    between atoms: _363  and  _364
REMARK  154  A    between atoms: _367  and  _369
REMARK  155  A    between atoms: _369  and  _370
REMARK                            x       y       z     vdW  Elec       q    Type
REMARK                         _______ _______ _______ _____ _____    ______ ____
ROOT
ATOM      1  CA  ILE A   2      78.210  63.368  -2.449  0.00  0.00    +0.148 C 
ENDROOT
BRANCH   1   3
ATOM      2  C   ASN A   1      79.710  62.978  -4.273  0.00  0.00    +0.239 C 
ATOM      3  N   ILE A   2      79.024  63.848  -3.541  0.00  0.00    -0.297 N 
ATOM      4  H   ILE A   2      79.072  64.865  -3.752  0.00  0.00    +0.150 HD
ATOM      5  O   ASN A   1      79.672  61.772  -4.032  0.00  0.00    -0.274 OA
BRANCH   2   6
ATOM      6  CA  ASN A   1      80.529  63.486  -5.441  0.00  0.00    +0.154 C 
BRANCH   6   7
ATOM      7  N   ASN A   1      79.899  64.627  -6.072  0.00  0.00    -0.238 NA
ATOM      8  H   ASN A   1      80.355  65.560  -6.013  0.00  0.00    +0.142 HD
ENDBRANCH   6   7
BRANCH   6   9
ATOM      9  CB  ASN A   1      81.940  63.821  -4.933  0.00  0.00    +0.111 C 
BRANCH   9  10
ATOM     10  CG  ASN A   1      82.062  65.039  -4.037  0.00  0.00    +0.221 C 
ATOM     11  ND2 ASN A   1      83.083  65.061  -3.194  0.00  0.00    -0.329 N 
ATOM     12 HD21 ASN A   1      83.226  65.882  -2.572  0.00  0.00    +0.145 HD
ATOM     13 HD22 ASN A   1      83.741  64.257  -3.154  0.00  0.00    +0.145 HD
ATOM     14  OD1 ASN A   1      81.273  65.977  -4.101  0.00  0.00    -0.275 OA
ENDBRANCH   9  10
ENDBRANCH   6   9
ENDBRANCH   2   6
ENDBRANCH   1   3
BRANCH   1  15
ATOM     15  C   ILE A   2      76.777  63.183  -2.947  0.00  0.00    +0.241 C 
ATOM     16  O   ILE A   2      76.083  62.257  -2.550  0.00  0.00    -0.273 OA
ATOM     17  N   MET A   3      76.280  64.042  -3.831  0.00  0.00    -0.298 N 
ATOM     18  H   MET A   3      76.886  64.814  -4.175  0.00  0.00    +0.150 HD
BRANCH  17  19
ATOM     19  CA  MET A   3      74.925  63.941  -4.332  0.00  0.00    +0.138 C 
BRANCH  19  20
ATOM     20  C   MET A   3      74.996  63.549  -5.793  0.00  0.00    +0.227 C 
ATOM     21  O   MET A   3      74.936  64.350  -6.715  0.00  0.00    -0.286 OA
ENDBRANCH  19  20
BRANCH  19  22
ATOM     22  CB  MET A   3      74.216  65.279  -4.157  0.00  0.00    +0.039 C 
BRANCH  22  23
ATOM     23  CG  MET A   3      73.818  65.497  -2.717  0.00  0.00    +0.060 C 
BRANCH  23  24
ATOM     24  SD  MET A   3      73.315  67.206  -2.440  0.00  0.00    -0.139 S 
ATOM     25  CE  MET A   3      74.971  67.782  -2.177  0.00  0.00    +0.069 C 
ENDBRANCH  23  24
ENDBRANCH  22  23
ENDBRANCH  19  22
ENDBRANCH  17  19
ENDBRANCH   1  15
BRANCH   1  26
ATOM     26  CB  ILE A   2      78.332  64.397  -1.307  0.00  0.00    +0.027 C 
ATOM     27  CG2 ILE A   2      77.486  63.987  -0.111  0.00  0.00    +0.002 C 
BRANCH  26  28
ATOM     28  CG1 ILE A   2      79.787  64.518  -0.903  0.00  0.00    +0.002 C 
ATOM     29  CD1 ILE A   2      80.405  63.259  -0.335  0.00  0.00    +0.000 C 
ENDBRANCH  26  28
ENDBRANCH   1  26
TORSDOF 13
REMARK  Name = ../refined-set-2016/1grp/1grp_pocket.pdb
REMARK  155 active torsions:
REMARK  status: ('A' for Active; 'I' for Inactive)
REMARK    1  A    between atoms: _1  and  _3
REMARK    2  A    between atoms: _3  and  _4
REMARK    3  A    between atoms: _3  and  _6
REMARK    4  A    between atoms: _6  and  _7
REMARK    5  A    between atoms: _7  and  _8
REMARK    6  A    between atoms: _8  and  _9
REMARK    7  A    between atoms: _9  and  _10
REMARK    8  A    between atoms: _14  and  _16
REMARK    9  A    between atoms: _16  and  _17
REMARK   10  A    between atoms: _16  and  _19
REMARK   11  A    between atoms: _19  and  _20
REMARK   12  A    between atoms: _23  and  _25
REMARK   13  A    between atoms: _25  and  _26
REMARK   14  A    between atoms: _25  and  _28
REMARK   15  A    between atoms: _28  and  _29
REMARK   16  A    between atoms: _32  and  _34
REMARK   17  A    between atoms: _34  and  _35
REMARK   18  A    between atoms: _34  and  _37
REMARK   19  A    between atoms: _37  and  _38
REMARK   20  A    between atoms: _41  and  _43
REMARK   21  A    between atoms: _43  and  _44
REMARK   22  A    between atoms: _43  and  _46
REMARK   23  A    between atoms: _46  and  _47
REMARK   24  A    between atoms: _47  and  _48
REMARK   25  A    between atoms: _48  and  _49
REMARK   26  A    between atoms: _58  and  _60
REMARK   27  A    between atoms: _60  and  _61
REMARK   28  A    between atoms: _60  and  _63
REMARK   29  A    between atoms: _63  and  _64
REMARK   30  A    between atoms: _66  and  _68
REMARK   31  A    between atoms: _68  and  _69
REMARK   32  A    between atoms: _68  and  _71
REMARK   33  A    between atoms: _71  and  _72
REMARK   34  A    between atoms: _75  and  _77
REMARK   35  A    between atoms: _77  and  _78
REMARK   36  A    between atoms: _77  and  _80
REMARK   37  A    between atoms: _80  and  _81
REMARK   38  A    between atoms: _84  and  _86
REMARK   39  A    between atoms: _86  and  _87
REMARK   40  A    between atoms: _86  and  _89
REMARK   41  A    between atoms: _92  and  _94
REMARK   42  A    between atoms: _94  and  _95
REMARK   43  A    between atoms: _98  and  _100
REMARK   44  A    between atoms: _100  and  _101
REMARK   45  A    between atoms: _100  and  _103
REMARK   46  A    between atoms: _103  and  _104
REMARK   47  A    between atoms: _104  and  _105
REMARK   48  A    between atoms: _105  and  _106
REMARK   49  A    between atoms: _115  and  _117
REMARK   50  A    between atoms: _117  and  _118
REMARK   51  A    between atoms: _117  and  _120
REMARK   52  A    between atoms: _122  and  _124
REMARK   53  A    between atoms: _124  and  _125
REMARK   54  A    between atoms: _124  and  _127
REMARK   55  A    between atoms: _127  and  _128
REMARK   56  A    between atoms: _128  and  _129
REMARK   57  A    between atoms: _129  and  _130
REMARK   58  A    between atoms: _139  and  _141
REMARK   59  A    between atoms: _141  and  _142
REMARK   60  A    between atoms: _141  and  _144
REMARK   61  A    between atoms: _144  and  _145
REMARK   62  A    between atoms: _145  and  _146
REMARK   63  A    between atoms: _146  and  _147
REMARK   64  A    between atoms: _156  and  _158
REMARK   65  A    between atoms: _158  and  _159
REMARK   66  A    between atoms: _158  and  _161
REMARK   67  A    between atoms: _161  and  _162
REMARK   68  A    between atoms: _167  and  _169
REMARK   69  A    between atoms: _169  and  _170
REMARK   70  A    between atoms: _169  and  _172
REMARK   71  A    between atoms: _172  and  _173
REMARK   72  A    between atoms: _178  and  _179
REMARK   73  A    between atoms: _181  and  _183
REMARK   74  A    between atoms: _183  and  _184
REMARK   75  A    between atoms: _183  and  _186
REMARK   76  A    between atoms: _186  and  _187
REMARK   77  A    between atoms: _192  and  _194
REMARK   78  A    between atoms: _194  and  _195
REMARK   79  A    between atoms: _194  and  _197
REMARK   80  A    between atoms: _197  and  _198
REMARK   81  A    between atoms: _201  and  _203
REMARK   82  A    between atoms: _203  and  _204
REMARK   83  A    between atoms: _206  and  _208
REMARK   84  A    between atoms: _208  and  _209
REMARK   85  A    between atoms: _208  and  _211
REMARK   86  A    between atoms: _211  and  _212
REMARK   87  A    between atoms: _212  and  _213
REMARK   88  A    between atoms: _215  and  _217
REMARK   89  A    between atoms: _217  and  _218
REMARK   90  A    between atoms: _217  and  _220
REMARK   91  A    between atoms: _220  and  _221
REMARK   92  A    between atoms: _226  and  _227
REMARK   93  A    between atoms: _229  and  _231
REMARK   94  A    between atoms: _231  and  _232
REMARK   95  A    between atoms: _231  and  _234
REMARK   96  A    between atoms: _234  and  _235
REMARK   97  A    between atoms: _237  and  _239
REMARK   98  A    between atoms: _239  and  _240
REMARK   99  A    between atoms: _239  and  _242
REMARK  100  A    between atoms: _242  and  _243
REMARK  101  A    between atoms: _246  and  _248
REMARK  102  A    between atoms: _248  and  _249
REMARK  103  A    between atoms: _248  and  _251
REMARK  104  A    between atoms: _251  and  _252
REMARK  105  A    between atoms: _257  and  _259
REMARK  106  A    between atoms: _259  and  _260
REMARK  107  A    between atoms: _259  and  _262
REMARK  108  A    between atoms: _262  and  _263
REMARK  109  A    between atoms: _263  and  _264
REMARK  110  A    between atoms: _267  and  _269
REMARK  111  A    between atoms: _269  and  _270
REMARK  112  A    between atoms: _273  and  _275
REMARK  113  A    between atoms: _275  and  _276
REMARK  114  A    between atoms: _275  and  _278
REMARK  115  A    between atoms: _278  and  _279
REMARK  116  A    between atoms: _282  and  _284
REMARK  117  A    between atoms: _284  and  _285
REMARK  118  A    between atoms: _284  and  _287
REMARK  119  A    between atoms: _287  and  _288
REMARK  120  A    between atoms: _293  and  _295
REMARK  121  A    between atoms: _295  and  _296
REMARK  122  A    between atoms: _298  and  _300
REMARK  123  A    between atoms: _300  and  _301
REMARK  124  A    between atoms: _300  and  _303
REMARK  125  A    between atoms: _303  and  _304
REMARK  126  A    between atoms: _307  and  _309
REMARK  127  A    between atoms: _309  and  _310
REMARK  128  A    between atoms: _309  and  _312
REMARK  129  A    between atoms: _312  and  _313
REMARK  130  A    between atoms: _313  and  _314
REMARK  131  A    between atoms: _314  and  _315
REMARK  132  A    between atoms: _315  and  _316
REMARK  133  A    between atoms: _320  and  _322
REMARK  134  A    between atoms: _322  and  _323
REMARK  135  A    between atoms: _322  and  _325
REMARK  136  A    between atoms: _325  and  _326
REMARK  137  A    between atoms: _331  and  _333
REMARK  138  A    between atoms: _333  and  _334
REMARK  139  A    between atoms: _333  and  _336
REMARK  140  A    between atoms: _336  and  _337
REMARK  141  A    between atoms: _340  and  _342
REMARK  142  A    between atoms: _342  and  _343
REMARK  143  A    between atoms: _342  and  _345
REMARK  144  A    between atoms: _345  and  _346
REMARK  145  A    between atoms: _346  and  _347
REMARK  146  A    between atoms: _349  and  _351
REMARK  147  A    between atoms: _351  and  _352
REMARK  148  A    between atoms: _351  and  _354
REMARK  149  A    between atoms: _354  and  _355
REMARK  150  A    between atoms: _358  and  _360
REMARK  151  A    between atoms: _360  and  _361
REMARK  152  A    between atoms: _360  and  _363
REMARK  153  A    between atoms: _363  and  _364
REMARK  154  A    between atoms: _367  and  _369
REMARK  155  A    between atoms: _369  and  _370
REMARK                            x       y       z     vdW  Elec       q    Type
REMARK                         _______ _______ _______ _____ _____    ______ ____
ROOT
ATOM      1  CA  ILE A   1      82.950  70.768  -7.058  0.00  0.00    +0.000 C 
ENDROOT
BRANCH   1   2
ATOM      2  N   ILE A   1      83.751  71.128  -8.236  0.00  0.00    +0.000 NA
ATOM      3  H   ILE A   1      84.692  70.697  -8.335  0.00  0.00    +0.000 HD
ENDBRANCH   1   2
BRANCH   1   4
ATOM      4  CB  ILE A   1      83.677  69.715  -6.184  0.00  0.00    +0.000 C 
ATOM      5  CG2 ILE A   1      82.738  69.266  -5.082  0.00  0.00    +0.000 C 
BRANCH   4   6
ATOM      6  CG1 ILE A   1      84.041  68.466  -6.956  0.00  0.00    +0.000 C 
ATOM      7  CD1 ILE A   1      82.853  67.656  -7.485  0.00  0.00    +0.000 C 
ENDBRANCH   4   6
ENDBRANCH   1   4
BRANCH   1   8
ATOM      8  C   ILE A   1      82.710  72.033  -6.239  0.00  0.00    +0.000 C 
ATOM      9  O   ILE A   1      83.632  72.854  -6.100  0.00  0.00    +0.000 OA
ENDBRANCH   1   8
TORSDOF 4
REMARK  Name = ../refined-set-2016/1grp/1grp_pocket.pdb
REMARK  155 active torsions:
REMARK  status: ('A' for Active; 'I' for Inactive)
REMARK    1  A    between atoms: _1  and  _3
REMARK    2  A    between atoms: _3  and  _4
REMARK    3  A    between atoms: _3  and  _6
REMARK    4  A    between atoms: _6  and  _7
REMARK    5  A    between atoms: _7  and  _8
REMARK    6  A    between atoms: _8  and  _9
REMARK    7  A    between atoms: _9  and  _10
REMARK    8  A    between atoms: _14  and  _16
REMARK    9  A    between atoms: _16  and  _17
REMARK   10  A    between atoms: _16  and  _19
REMARK   11  A    between atoms: _19  and  _20
REMARK   12  A    between atoms: _23  and  _25
REMARK   13  A    between atoms: _25  and  _26
REMARK   14  A    between atoms: _25  and  _28
REMARK   15  A    between atoms: _28  and  _29
REMARK   16  A    between atoms: _32  and  _34
REMARK   17  A    between atoms: _34  and  _35
REMARK   18  A    between atoms: _34  and  _37
REMARK   19  A    between atoms: _37  and  _38
REMARK   20  A    between atoms: _41  and  _43
REMARK   21  A    between atoms: _43  and  _44
REMARK   22  A    between atoms: _43  and  _46
REMARK   23  A    between atoms: _46  and  _47
REMARK   24  A    between atoms: _47  and  _48
REMARK   25  A    between atoms: _48  and  _49
REMARK   26  A    between atoms: _58  and  _60
REMARK   27  A    between atoms: _60  and  _61
REMARK   28  A    between atoms: _60  and  _63
REMARK   29  A    between atoms: _63  and  _64
REMARK   30  A    between atoms: _66  and  _68
REMARK   31  A    between atoms: _68  and  _69
REMARK   32  A    between atoms: _68  and  _71
REMARK   33  A    between atoms: _71  and  _72
REMARK   34  A    between atoms: _75  and  _77
REMARK   35  A    between atoms: _77  and  _78
REMARK   36  A    between atoms: _77  and  _80
REMARK   37  A    between atoms: _80  and  _81
REMARK   38  A    between atoms: _84  and  _86
REMARK   39  A    between atoms: _86  and  _87
REMARK   40  A    between atoms: _86  and  _89
REMARK   41  A    between atoms: _92  and  _94
REMARK   42  A    between atoms: _94  and  _95
REMARK   43  A    between atoms: _98  and  _100
REMARK   44  A    between atoms: _100  and  _101
REMARK   45  A    between atoms: _100  and  _103
REMARK   46  A    between atoms: _103  and  _104
REMARK   47  A    between atoms: _104  and  _105
REMARK   48  A    between atoms: _105  and  _106
REMARK   49  A    between atoms: _115  and  _117
REMARK   50  A    between atoms: _117  and  _118
REMARK   51  A    between atoms: _117  and  _120
REMARK   52  A    between atoms: _122  and  _124
REMARK   53  A    between atoms: _124  and  _125
REMARK   54  A    between atoms: _124  and  _127
REMARK   55  A    between atoms: _127  and  _128
REMARK   56  A    between atoms: _128  and  _129
REMARK   57  A    between atoms: _129  and  _130
REMARK   58  A    between atoms: _139  and  _141
REMARK   59  A    between atoms: _141  and  _142
REMARK   60  A    between atoms: _141  and  _144
REMARK   61  A    between atoms: _144  and  _145
REMARK   62  A    between atoms: _145  and  _146
REMARK   63  A    between atoms: _146  and  _147
REMARK   64  A    between atoms: _156  and  _158
REMARK   65  A    between atoms: _158  and  _159
REMARK   66  A    between atoms: _158  and  _161
REMARK   67  A    between atoms: _161  and  _162
REMARK   68  A    between atoms: _167  and  _169
REMARK   69  A    between atoms: _169  and  _170
REMARK   70  A    between atoms: _169  and  _172
REMARK   71  A    between atoms: _172  and  _173
REMARK   72  A    between atoms: _178  and  _179
REMARK   73  A    between atoms: _181  and  _183
REMARK   74  A    between atoms: _183  and  _184
REMARK   75  A    between atoms: _183  and  _186
REMARK   76  A    between atoms: _186  and  _187
REMARK   77  A    between atoms: _192  and  _194
REMARK   78  A    between atoms: _194  and  _195
REMARK   79  A    between atoms: _194  and  _197
REMARK   80  A    between atoms: _197  and  _198
REMARK   81  A    between atoms: _201  and  _203
REMARK   82  A    between atoms: _203  and  _204
REMARK   83  A    between atoms: _206  and  _208
REMARK   84  A    between atoms: _208  and  _209
REMARK   85  A    between atoms: _208  and  _211
REMARK   86  A    between atoms: _211  and  _212
REMARK   87  A    between atoms: _212  and  _213
REMARK   88  A    between atoms: _215  and  _217
REMARK   89  A    between atoms: _217  and  _218
REMARK   90  A    between atoms: _217  and  _220
REMARK   91  A    between atoms: _220  and  _221
REMARK   92  A    between atoms: _226  and  _227
REMARK   93  A    between atoms: _229  and  _231
REMARK   94  A    between atoms: _231  and  _232
REMARK   95  A    between atoms: _231  and  _234
REMARK   96  A    between atoms: _234  and  _235
REMARK   97  A    between atoms: _237  and  _239
REMARK   98  A    between atoms: _239  and  _240
REMARK   99  A    between atoms: _239  and  _242
REMARK  100  A    between atoms: _242  and  _243
REMARK  101  A    between atoms: _246  and  _248
REMARK  102  A    between atoms: _248  and  _249
REMARK  103  A    between atoms: _248  and  _251
REMARK  104  A    between atoms: _251  and  _252
REMARK  105  A    between atoms: _257  and  _259
REMARK  106  A    between atoms: _259  and  _260
REMARK  107  A    between atoms: _259  and  _262
REMARK  108  A    between atoms: _262  and  _263
REMARK  109  A    between atoms: _263  and  _264
REMARK  110  A    between atoms: _267  and  _269
REMARK  111  A    between atoms: _269  and  _270
REMARK  112  A    between atoms: _273  and  _275
REMARK  113  A    between atoms: _275  and  _276
REMARK  114  A    between atoms: _275  and  _278
REMARK  115  A    between atoms: _278  and  _279
REMARK  116  A    between atoms: _282  and  _284
REMARK  117  A    between atoms: _284  and  _285
REMARK  118  A    between atoms: _284  and  _287
REMARK  119  A    between atoms: _287  and  _288
REMARK  120  A    between atoms: _293  and  _295
REMARK  121  A    between atoms: _295  and  _296
REMARK  122  A    between atoms: _298  and  _300
REMARK  123  A    between atoms: _300  and  _301
REMARK  124  A    between atoms: _300  and  _303
REMARK  125  A    between atoms: _303  and  _304
REMARK  126  A    between atoms: _307  and  _309
REMARK  127  A    between atoms: _309  and  _310
REMARK  128  A    between atoms: _309  and  _312
REMARK  129  A    between atoms: _312  and  _313
REMARK  130  A    between atoms: _313  and  _314
REMARK  131  A    between atoms: _314  and  _315
REMARK  132  A    between atoms: _315  and  _316
REMARK  133  A    between atoms: _320  and  _322
REMARK  134  A    between atoms: _322  and  _323
REMARK  135  A    between atoms: _322  and  _325
REMARK  136  A    between atoms: _325  and  _326
REMARK  137  A    between atoms: _331  and  _333
REMARK  138  A    between atoms: _333  and  _334
REMARK  139  A    between atoms: _333  and  _336
REMARK  140  A    between atoms: _336  and  _337
REMARK  141  A    between atoms: _340  and  _342
REMARK  142  A    between atoms: _342  and  _343
REMARK  143  A    between atoms: _342  and  _345
REMARK  144  A    between atoms: _345  and  _346
REMARK  145  A    between atoms: _346  and  _347
REMARK  146  A    between atoms: _349  and  _351
REMARK  147  A    between atoms: _351  and  _352
REMARK  148  A    between atoms: _351  and  _354
REMARK  149  A    between atoms: _354  and  _355
REMARK  150  A    between atoms: _358  and  _360
REMARK  151  A    between atoms: _360  and  _361
REMARK  152  A    between atoms: _360  and  _363
REMARK  153  A    between atoms: _363  and  _364
REMARK  154  A    between atoms: _367  and  _369
REMARK  155  A    between atoms: _369  and  _370
REMARK                            x       y       z     vdW  Elec       q    Type
REMARK                         _______ _______ _______ _____ _____    ______ ____
ROOT
ATOM      1  C   ASP A   1      84.499  74.263  -2.374  0.00  0.00    +0.000 C 
ATOM      2  O   ASP A   1      85.028  75.276  -1.913  0.00  0.00    +0.000 OA
ATOM      3  N   ALA A   2      85.085  73.531  -3.311  0.00  0.00    +0.000 N 
ATOM      4  H   ALA A   2      84.636  72.645  -3.618  0.00  0.00    +0.000 HD
ENDROOT
BRANCH   3   5
ATOM      5  CA  ALA A   2      86.336  73.936  -3.918  0.00  0.00    +0.000 C 
ATOM      6  CB  ALA A   2      86.857  72.855  -4.832  0.00  0.00    +0.000 C 
BRANCH   5   7
ATOM      7  C   ALA A   2      86.130  75.192  -4.752  0.00  0.00    +0.000 C 
ATOM      8  O   ALA A   2      87.020  76.038  -4.811  0.00  0.00    +0.000 OA
ENDBRANCH   5   7
ENDBRANCH   3   5
BRANCH   1   9
ATOM      9  CA  ASP A   1      83.125  73.789  -1.923  0.00  0.00    +0.000 C 
BRANCH   9  10
ATOM     10  N   ASP A   1      82.354  73.205  -3.011  0.00  0.00    +0.000 NA
ATOM     11  H   ASP A   1      82.270  72.171  -3.085  0.00  0.00    +0.000 HD
ENDBRANCH   9  10
BRANCH   9  12
ATOM     12  CB  ASP A   1      83.249  72.763  -0.798  0.00  0.00    +0.000 C 
BRANCH  12  13
ATOM     13  CG  ASP A   1      83.795  71.374  -1.114  0.00  0.00    +0.000 C 
ATOM     14  OD2 ASP A   1      84.181  70.710  -0.158  0.00  0.00    +0.000 OA
ATOM     15  OD1 ASP A   1      83.845  70.944  -2.268  0.00  0.00    +0.000 OA
ENDBRANCH  12  13
ENDBRANCH   9  12
ENDBRANCH   1   9
TORSDOF 6
