REMARK  Name = ../refined-set-2016/3cd7/3cd7_pocket.pdb
REMARK  246 active torsions:
REMARK  status: ('A' for Active; 'I' for Inactive)
REMARK    1  A    between atoms: _1  and  _3
REMARK    2  A    between atoms: _3  and  _4
REMARK    3  A    between atoms: _3  and  _6
REMARK    4  A    between atoms: _6  and  _7
REMARK    5  A    between atoms: _7  and  _8
REMARK    6  A    between atoms: _11  and  _13
REMARK    7  A    between atoms: _13  and  _14
REMARK    8  A    between atoms: _16  and  _18
REMARK    9  A    between atoms: _18  and  _19
REMARK   10  A    between atoms: _18  and  _21
REMARK   11  A    between atoms: _23  and  _25
REMARK   12  A    between atoms: _25  and  _26
REMARK   13  A    between atoms: _25  and  _28
REMARK   14  A    between atoms: _28  and  _29
REMARK   15  A    between atoms: _32  and  _34
REMARK   16  A    between atoms: _34  and  _35
REMARK   17  A    between atoms: _34  and  _37
REMARK   18  A    between atoms: _40  and  _42
REMARK   19  A    between atoms: _42  and  _43
REMARK   20  A    between atoms: _46  and  _48
REMARK   21  A    between atoms: _48  and  _49
REMARK   22  A    between atoms: _48  and  _51
REMARK   23  A    between atoms: _51  and  _52
REMARK   24  A    between atoms: _54  and  _56
REMARK   25  A    between atoms: _56  and  _57
REMARK   26  A    between atoms: _56  and  _59
REMARK   27  A    between atoms: _59  and  _60
REMARK   28  A    between atoms: _63  and  _65
REMARK   29  A    between atoms: _65  and  _66
REMARK   30  A    between atoms: _65  and  _68
REMARK   31  A    between atoms: _68  and  _69
REMARK   32  A    between atoms: _74  and  _76
REMARK   33  A    between atoms: _76  and  _77
REMARK   34  A    between atoms: _76  and  _79
REMARK   35  A    between atoms: _79  and  _80
REMARK   36  A    between atoms: _80  and  _81
REMARK   37  A    between atoms: _81  and  _82
REMARK   38  A    between atoms: _91  and  _93
REMARK   39  A    between atoms: _93  and  _94
REMARK   40  A    between atoms: _96  and  _98
REMARK   41  A    between atoms: _98  and  _99
REMARK   42  A    between atoms: _98  and  _101
REMARK   43  A    between atoms: _104  and  _106
REMARK   44  A    between atoms: _106  and  _107
REMARK   45  A    between atoms: _106  and  _109
REMARK   46  A    between atoms: _109  and  _110
REMARK   47  A    between atoms: _113  and  _115
REMARK   48  A    between atoms: _115  and  _116
REMARK   49  A    between atoms: _115  and  _118
REMARK   50  A    between atoms: _118  and  _119
REMARK   51  A    between atoms: _119  and  _120
REMARK   52  A    between atoms: _120  and  _121
REMARK   53  A    between atoms: _121  and  _122
REMARK   54  A    between atoms: _126  and  _128
REMARK   55  A    between atoms: _128  and  _129
REMARK   56  A    between atoms: _128  and  _131
REMARK   57  A    between atoms: _131  and  _132
REMARK   58  A    between atoms: _132  and  _133
REMARK   59  A    between atoms: _133  and  _134
REMARK   60  A    between atoms: _134  and  _135
REMARK   61  A    between atoms: _139  and  _141
REMARK   62  A    between atoms: _141  and  _142
REMARK   63  A    between atoms: _141  and  _144
REMARK   64  A    between atoms: _144  and  _145
REMARK   65  A    between atoms: _150  and  _152
REMARK   66  A    between atoms: _152  and  _153
REMARK   67  A    between atoms: _152  and  _155
REMARK   68  A    between atoms: _155  and  _156
REMARK   69  A    between atoms: _161  and  _163
REMARK   70  A    between atoms: _163  and  _164
REMARK   71  A    between atoms: _167  and  _169
REMARK   72  A    between atoms: _169  and  _170
REMARK   73  A    between atoms: _169  and  _172
REMARK   74  A    between atoms: _172  and  _173
REMARK   75  A    between atoms: _178  and  _180
REMARK   76  A    between atoms: _180  and  _181
REMARK   77  A    between atoms: _184  and  _186
REMARK   78  A    between atoms: _186  and  _187
REMARK   79  A    between atoms: _190  and  _192
REMARK   80  A    between atoms: _192  and  _193
REMARK   81  A    between atoms: _192  and  _195
REMARK   82  A    between atoms: _195  and  _196
REMARK   83  A    between atoms: _201  and  _203
REMARK   84  A    between atoms: _203  and  _204
REMARK   85  A    between atoms: _203  and  _206
REMARK   86  A    between atoms: _206  and  _207
REMARK   87  A    between atoms: _210  and  _212
REMARK   88  A    between atoms: _212  and  _213
REMARK   89  A    between atoms: _215  and  _217
REMARK   90  A    between atoms: _217  and  _218
REMARK   91  A    between atoms: _217  and  _220
REMARK   92  A    between atoms: _220  and  _221
REMARK   93  A    between atoms: _221  and  _222
REMARK   94  A    between atoms: _225  and  _227
REMARK   95  A    between atoms: _227  and  _228
REMARK   96  A    between atoms: _227  and  _230
REMARK   97  A    between atoms: _230  and  _231
REMARK   98  A    between atoms: _234  and  _236
REMARK   99  A    between atoms: _236  and  _237
REMARK  100  A    between atoms: _236  and  _239
REMARK  101  A    between atoms: _239  and  _240
REMARK  102  A    between atoms: _242  and  _244
REMARK  103  A    between atoms: _244  and  _245
REMARK  104  A    between atoms: _244  and  _247
REMARK  105  A    between atoms: _247  and  _248
REMARK  106  A    between atoms: _251  and  _253
REMARK  107  A    between atoms: _253  and  _254
REMARK  108  A    between atoms: _253  and  _256
REMARK  109  A    between atoms: _256  and  _257
REMARK  110  A    between atoms: _257  and  _258
REMARK  111  A    between atoms: _260  and  _262
REMARK  112  A    between atoms: _262  and  _263
REMARK  113  A    between atoms: _266  and  _268
REMARK  114  A    between atoms: _268  and  _269
REMARK  115  A    between atoms: _272  and  _274
REMARK  116  A    between atoms: _274  and  _275
REMARK  117  A    between atoms: _274  and  _277
REMARK  118  A    between atoms: _277  and  _278
REMARK  119  A    between atoms: _281  and  _283
REMARK  120  A    between atoms: _283  and  _284
REMARK  121  A    between atoms: _287  and  _289
REMARK  122  A    between atoms: _289  and  _290
REMARK  123  A    between atoms: _293  and  _295
REMARK  124  A    between atoms: _295  and  _296
REMARK  125  A    between atoms: _298  and  _300
REMARK  126  A    between atoms: _300  and  _301
REMARK  127  A    between atoms: _300  and  _303
REMARK  128  A    between atoms: _303  and  _304
REMARK  129  A    between atoms: _309  and  _311
REMARK  130  A    between atoms: _311  and  _312
REMARK  131  A    between atoms: _311  and  _314
REMARK  132  A    between atoms: _314  and  _315
REMARK  133  A    between atoms: _315  and  _316
REMARK  134  A    between atoms: _319  and  _321
REMARK  135  A    between atoms: _321  and  _322
REMARK  136  A    between atoms: _321  and  _324
REMARK  137  A    between atoms: _324  and  _325
REMARK  138  A    between atoms: _328  and  _330
REMARK  139  A    between atoms: _330  and  _331
REMARK  140  A    between atoms: _330  and  _333
REMARK  141  A    between atoms: _333  and  _334
REMARK  142  A    between atoms: _334  and  _335
REMARK  143  A    between atoms: _335  and  _336
REMARK  144  A    between atoms: _345  and  _347
REMARK  145  A    between atoms: _347  and  _348
REMARK  146  A    between atoms: _351  and  _352
REMARK  147  A    between atoms: _357  and  _359
REMARK  148  A    between atoms: _359  and  _360
REMARK  149  A    between atoms: _359  and  _362
REMARK  150  A    between atoms: _362  and  _363
REMARK  151  A    between atoms: _363  and  _364
REMARK  152  A    between atoms: _366  and  _368
REMARK  153  A    between atoms: _368  and  _369
REMARK  154  A    between atoms: _368  and  _371
REMARK  155  A    between atoms: _371  and  _372
REMARK  156  A    between atoms: _372  and  _373
REMARK  157  A    between atoms: _375  and  _377
REMARK  158  A    between atoms: _377  and  _378
REMARK  159  A    between atoms: _377  and  _380
REMARK  160  A    between atoms: _380  and  _381
REMARK  161  A    between atoms: _386  and  _388
REMARK  162  A    between atoms: _388  and  _389
REMARK  163  A    between atoms: _388  and  _391
REMARK  164  A    between atoms: _391  and  _392
REMARK  165  A    between atoms: _395  and  _397
REMARK  166  A    between atoms: _397  and  _398
REMARK  167  A    between atoms: _397  and  _400
REMARK  168  A    between atoms: _400  and  _401
REMARK  169  A    between atoms: _403  and  _405
REMARK  170  A    between atoms: _405  and  _406
REMARK  171  A    between atoms: _405  and  _408
REMARK  172  A    between atoms: _408  and  _409
REMARK  173  A    between atoms: _409  and  _410
REMARK  174  A    between atoms: _410  and  _411
REMARK  175  A    between atoms: _411  and  _412
REMARK  176  A    between atoms: _416  and  _418
REMARK  177  A    between atoms: _418  and  _419
REMARK  178  A    between atoms: _418  and  _421
REMARK  179  A    between atoms: _421  and  _422
REMARK  180  A    between atoms: _425  and  _427
REMARK  181  A    between atoms: _427  and  _428
REMARK  182  A    between atoms: _427  and  _430
REMARK  183  A    between atoms: _430  and  _431
REMARK  184  A    between atoms: _431  and  _432
REMARK  185  A    between atoms: _435  and  _437
REMARK  186  A    between atoms: _437  and  _438
REMARK  187  A    between atoms: _441  and  _443
REMARK  188  A    between atoms: _443  and  _444
REMARK  189  A    between atoms: _443  and  _446
REMARK  190  A    between atoms: _449  and  _451
REMARK  191  A    between atoms: _451  and  _452
REMARK  192  A    between atoms: _451  and  _454
REMARK  193  A    between atoms: _454  and  _455
REMARK  194  A    between atoms: _457  and  _459
REMARK  195  A    between atoms: _459  and  _460
REMARK  196  A    between atoms: _462  and  _464
REMARK  197  A    between atoms: _464  and  _465
REMARK  198  A    between atoms: _464  and  _467
REMARK  199  A    between atoms: _467  and  _468
REMARK  200  A    between atoms: _473  and  _475
REMARK  201  A    between atoms: _475  and  _476
REMARK  202  A    between atoms: _475  and  _478
REMARK  203  A    between atoms: _478  and  _479
REMARK  204  A    between atoms: _484  and  _485
REMARK  205  A    between atoms: _487  and  _489
REMARK  206  A    between atoms: _489  and  _490
REMARK  207  A    between atoms: _489  and  _492
REMARK  208  A    between atoms: _494  and  _496
REMARK  209  A    between atoms: _496  and  _497
REMARK  210  A    between atoms: _496  and  _499
REMARK  211  A    between atoms: _499  and  _500
REMARK  212  A    between atoms: _503  and  _505
REMARK  213  A    between atoms: _505  and  _506
REMARK  214  A    between atoms: _505  and  _508
REMARK  215  A    between atoms: _508  and  _509
REMARK  216  A    between atoms: _512  and  _514
REMARK  217  A    between atoms: _514  and  _515
REMARK  218  A    between atoms: _514  and  _517
REMARK  219  A    between atoms: _517  and  _518
REMARK  220  A    between atoms: _518  and  _519
REMARK  221  A    between atoms: _519  and  _520
REMARK  222  A    between atoms: _520  and  _521
REMARK  223  A    between atoms: _525  and  _527
REMARK  224  A    between atoms: _527  and  _528
REMARK  225  A    between atoms: _527  and  _530
REMARK  226  A    between atoms: _530  and  _531
REMARK  227  A    between atoms: _531  and  _532
REMARK  228  A    between atoms: _532  and  _533
REMARK  229  A    between atoms: _533  and  _534
REMARK  230  A    between atoms: _538  and  _540
REMARK  231  A    between atoms: _540  and  _541
REMARK  232  A    between atoms: _540  and  _543
REMARK  233  A    between atoms: _543  and  _544
REMARK  234  A    between atoms: _544  and  _545
REMARK  235  A    between atoms: _545  and  _546
REMARK  236  A    between atoms: _555  and  _557
REMARK  237  A    between atoms: _557  and  _558
REMARK  238  A    between atoms: _557  and  _560
REMARK  239  A    between atoms: _560  and  _561
REMARK  240  A    between atoms: _564  and  _566
REMARK  241  A    between atoms: _566  and  _567
REMARK  242  A    between atoms: _570  and  _572
REMARK  243  A    between atoms: _572  and  _573
REMARK  244  A    between atoms: _572  and  _575
REMARK  245  A    between atoms: _575  and  _576
REMARK  246  A    between atoms: _576  and  _577
REMARK                            x       y       z     vdW  Elec       q    Type
REMARK                         _______ _______ _______ _____ _____    ______ ____
ROOT
ATOM      1  CA  SER A   7      -4.420 -15.364  -0.775  0.00  0.00    +0.178 C 
ENDROOT
BRANCH   1   2
ATOM      2  C   SER A   7      -3.652 -14.267  -1.479  0.00  0.00    +0.243 C 
ATOM      3  N   THR A   8      -2.336 -14.438  -1.556  0.00  0.00    -0.295 N 
ATOM      4  H   THR A   8      -1.908 -15.273  -1.107  0.00  0.00    +0.150 HD
ATOM      5  O   SER A   7      -4.240 -13.300  -1.959  0.00  0.00    -0.273 OA
BRANCH   3   6
ATOM      6  CA  THR A   8      -1.473 -13.488  -2.253  0.00  0.00    +0.176 C 
BRANCH   6   7
ATOM      7  C   THR A   8      -1.892 -13.341  -3.714  0.00  0.00    +0.243 C 
ATOM      8  O   THR A   8      -1.834 -12.246  -4.271  0.00  0.00    -0.273 OA
ATOM      9  N   ASN A   9      -2.324 -14.451  -4.319  0.00  0.00    -0.297 N 
ATOM     10  H   ASN A   9      -2.361 -15.335  -3.772  0.00  0.00    +0.150 HD
BRANCH   9  11
ATOM     11  CA  ASN A   9      -2.747 -14.474  -5.717  0.00  0.00    +0.158 C 
BRANCH  11  12
ATOM     12  C   ASN A   9      -4.015 -13.664  -5.936  0.00  0.00    +0.241 C 
ATOM     13  N   ARG A  10      -4.945 -13.750  -4.987  0.00  0.00    -0.297 N 
ATOM     14  H   ARG A  10      -4.797 -14.401  -4.189  0.00  0.00    +0.150 HD
ATOM     15  O   ASN A   9      -4.142 -12.962  -6.938  0.00  0.00    -0.273 OA
BRANCH  13  16
ATOM     16  CA  ARG A  10      -6.168 -12.954  -5.038  0.00  0.00    +0.149 C 
BRANCH  16  17
ATOM     17  C   ARG A  10      -5.847 -11.465  -4.978  0.00  0.00    +0.241 C 
ATOM     18  N   GLY A  11      -4.871 -11.106  -4.146  0.00  0.00    -0.296 N 
ATOM     19  H   GLY A  11      -4.441 -11.827  -3.532  0.00  0.00    +0.150 HD
ATOM     20  O   ARG A  10      -6.476 -10.655  -5.671  0.00  0.00    -0.273 OA
BRANCH  18  21
ATOM     21  CA  GLY A  11      -4.391  -9.743  -4.070  0.00  0.00    +0.163 C 
BRANCH  21  22
ATOM     22  C   GLY A  11      -3.753  -9.272  -5.365  0.00  0.00    +0.229 C 
ATOM     23  O   GLY A  11      -3.887  -8.114  -5.732  0.00  0.00    -0.286 OA
ENDBRANCH  21  22
ENDBRANCH  18  21
ENDBRANCH  16  17
BRANCH  16  24
ATOM     24  CB  ARG A  10      -7.113 -13.327  -3.898  0.00  0.00    +0.033 C 
BRANCH  24  25
ATOM     25  CG  ARG A  10      -8.470 -12.649  -4.019  0.00  0.00    +0.045 C 
BRANCH  25  26
ATOM     26  CD  ARG A  10      -9.478 -13.092  -2.997  0.00  0.00    +0.174 C 
BRANCH  26  27
ATOM     27  NE  ARG A  10      -9.197 -12.499  -1.691  0.00  0.00    -0.265 N 
ATOM     28  CZ  ARG A  10     -10.081 -12.373  -0.703  0.00  0.00    +0.342 C 
ATOM     29  NH2 ARG A  10      -9.691 -11.828   0.444  0.00  0.00    -0.292 N 
ATOM     30 HH21 ARG A  10     -10.368 -11.722   1.226  0.00  0.00    +0.255 HD
ATOM     31 HH22 ARG A  10      -8.708 -11.507   0.560  0.00  0.00    +0.255 HD
ATOM     32  NH1 ARG A  10     -11.341 -12.786  -0.847  0.00  0.00    -0.292 N 
ATOM     33 HH11 ARG A  10     -12.016 -12.679  -0.063  0.00  0.00    +0.255 HD
ATOM     34 HH12 ARG A  10     -11.648 -13.215  -1.743  0.00  0.00    +0.255 HD
ATOM     35  HE  ARG A  10      -8.233 -12.149  -1.520  0.00  0.00    +0.259 HD
ENDBRANCH  26  27
ENDBRANCH  25  26
ENDBRANCH  24  25
ENDBRANCH  16  24
ENDBRANCH  13  16
ENDBRANCH  11  12
BRANCH  11  36
ATOM     36  CB  ASN A   9      -2.957 -15.912  -6.199  0.00  0.00    +0.114 C 
BRANCH  36  37
ATOM     37  CG  ASN A   9      -2.990 -16.017  -7.711  0.00  0.00    +0.222 C 
ATOM     38  OD1 ASN A   9      -4.039 -16.255  -8.309  0.00  0.00    -0.275 OA
ATOM     39  ND2 ASN A   9      -1.843 -15.828  -8.337  0.00  0.00    -0.329 N 
ATOM     40 HD21 ASN A   9      -0.980 -15.629  -7.792  0.00  0.00    +0.145 HD
ATOM     41 HD22 ASN A   9      -1.803 -15.878  -9.375  0.00  0.00    +0.145 HD
ENDBRANCH  36  37
ENDBRANCH  11  36
ENDBRANCH   9  11
ENDBRANCH   6   7
BRANCH   6  42
ATOM     42  CB  THR A   8       0.000 -13.934  -2.171  0.00  0.00    +0.137 C 
ATOM     43  CG2 THR A   8       0.936 -12.830  -2.673  0.00  0.00    +0.034 C 
BRANCH  42  44
ATOM     44  OG1 THR A   8       0.378 -14.132  -0.804  0.00  0.00    -0.382 OA
ATOM     45  HG1 THR A   8      -0.197 -14.831  -0.402  0.00  0.00    +0.210 HD
ENDBRANCH  42  44
ENDBRANCH   6  42
ENDBRANCH   3   6
ENDBRANCH   1   2
BRANCH   1  47
ATOM     46  C   ALA A   6      -4.215 -17.114  -2.461  0.00  0.00    +0.241 C 
ATOM     47  N   SER A   7      -3.951 -16.671  -1.232  0.00  0.00    -0.295 N 
ATOM     48  H   SER A   7      -3.399 -17.268  -0.584  0.00  0.00    +0.150 HD
ATOM     49  O   ALA A   6      -4.838 -16.446  -3.292  0.00  0.00    -0.273 OA
BRANCH  46  50
ATOM     50  CA  ALA A   6      -3.701 -18.515  -2.815  0.00  0.00    +0.149 C 
ATOM     51  CB  ALA A   6      -4.668 -19.592  -2.293  0.00  0.00    +0.031 C 
BRANCH  50  53
ATOM     52  C   VAL A   5      -1.307 -18.040  -2.676  0.00  0.00    +0.241 C 
ATOM     53  N   ALA A   6      -2.360 -18.752  -2.289  0.00  0.00    -0.297 N 
ATOM     54  H   ALA A   6      -2.224 -19.506  -1.586  0.00  0.00    +0.150 HD
ATOM     55  O   VAL A   5      -1.380 -17.115  -3.486  0.00  0.00    -0.273 OA
BRANCH  52  56
ATOM     56  CA  VAL A   5       0.030 -18.412  -2.034  0.00  0.00    +0.149 C 
BRANCH  56  59
ATOM     57  C   LEU A   4      -0.585 -17.754   0.224  0.00  0.00    +0.241 C 
ATOM     58  O   LEU A   4      -0.836 -16.614  -0.135  0.00  0.00    -0.273 OA
ATOM     59  N   VAL A   5      -0.171 -18.696  -0.616  0.00  0.00    -0.297 N 
ATOM     60  H   VAL A   5       0.014 -19.654  -0.257  0.00  0.00    +0.150 HD
BRANCH  57  61
ATOM     61  CA  LEU A   4      -0.745 -18.148   1.691  0.00  0.00    +0.149 C 
BRANCH  61  63
ATOM     62  C   CYS A   3      -2.866 -19.312   1.550  0.00  0.00    +0.242 C 
ATOM     63  N   LEU A   4      -1.565 -19.351   1.825  0.00  0.00    -0.297 N 
ATOM     64  H   LEU A   4      -1.129 -20.242   2.137  0.00  0.00    +0.150 HD
ATOM     65  O   CYS A   3      -3.407 -18.310   1.086  0.00  0.00    -0.273 OA
BRANCH  62  66
ATOM     66  CA  CYS A   3      -3.706 -20.559   1.811  0.00  0.00    +0.160 C 
BRANCH  66  69
ATOM     67  C   GLY A   2      -2.411 -21.934   3.421  0.00  0.00    +0.243 C 
ATOM     68  O   GLY A   2      -2.452 -21.119   4.341  0.00  0.00    -0.273 OA
ATOM     69  N   CYS A   3      -2.973 -21.756   2.227  0.00  0.00    -0.296 N 
ATOM     70  H   CYS A   3      -2.884 -22.528   1.536  0.00  0.00    +0.150 HD
BRANCH  67  71
ATOM     71  CA  GLY A   2      -1.686 -23.241   3.587  0.00  0.00    +0.176 C 
BRANCH  71  73
ATOM     72  C   GLU A   1       0.497 -22.332   4.148  0.00  0.00    +0.238 C 
ATOM     73  N   GLY A   2      -0.534 -23.113   4.454  0.00  0.00    -0.296 N 
ATOM     74  H   GLY A   2      -0.512 -23.649   5.345  0.00  0.00    +0.150 HD
ATOM     75  O   GLU A   1       0.562 -21.654   3.113  0.00  0.00    -0.274 OA
BRANCH  72  76
ATOM     76  CA  GLU A   1       1.613 -22.291   5.173  0.00  0.00    +0.145 C 
BRANCH  76  77
ATOM     77  N   GLU A   1       2.834 -22.815   4.571  0.00  0.00    -0.238 NA
ATOM     78  H   GLU A   1       3.449 -22.169   4.035  0.00  0.00    +0.142 HD
ENDBRANCH  76  77
BRANCH  76  79
ATOM     79  CB  GLU A   1       1.791 -20.856   5.672  0.00  0.00    +0.038 C 
BRANCH  79  80
ATOM     80  CG  GLU A   1       0.476 -20.174   6.051  0.00  0.00    +0.116 C 
BRANCH  80  81
ATOM     81  CD  GLU A   1       0.654 -18.976   6.979  0.00  0.00    +0.365 C 
ATOM     82  OE2 GLU A   1      -0.236 -18.761   7.841  0.00  0.00    -0.246 OA
ATOM     83  OE1 GLU A   1       1.667 -18.243   6.830  0.00  0.00    -0.246 OA
ENDBRANCH  80  81
ENDBRANCH  79  80
ENDBRANCH  76  79
ENDBRANCH  72  76
ENDBRANCH  71  73
ENDBRANCH  67  71
ENDBRANCH  66  69
BRANCH  66  84
ATOM     84  CB  CYS A   3      -4.820 -20.234   2.807  0.00  0.00    +0.098 C 
ATOM     85  SG  CYS A   3      -6.072 -21.518   2.870  0.00  0.00    -0.080 S 
ENDBRANCH  66  84
ENDBRANCH  62  66
ENDBRANCH  61  63
BRANCH  61  86
ATOM     86  CB  LEU A   4       0.629 -18.318   2.351  0.00  0.00    +0.029 C 
BRANCH  86  87
ATOM     87  CG  LEU A   4       1.590 -17.140   2.128  0.00  0.00    +0.002 C 
ATOM     88  CD2 LEU A   4       2.940 -17.410   2.772  0.00  0.00    +0.000 C 
ATOM     89  CD1 LEU A   4       0.984 -15.848   2.665  0.00  0.00    +0.000 C 
ENDBRANCH  86  87
ENDBRANCH  61  86
ENDBRANCH  57  61
ENDBRANCH  56  59
BRANCH  56  90
ATOM     90  CB  VAL A   5       0.668 -19.611  -2.785  0.00  0.00    +0.027 C 
ATOM     91  CG2 VAL A   5       2.063 -19.909  -2.243  0.00  0.00    +0.002 C 
ATOM     92  CG1 VAL A   5       0.726 -19.343  -4.281  0.00  0.00    +0.002 C 
ENDBRANCH  56  90
ENDBRANCH  52  56
ENDBRANCH  50  53
ENDBRANCH  46  50
ENDBRANCH   1  47
BRANCH   1  93
ATOM     93  CB  SER A   7      -4.276 -15.202   0.738  0.00  0.00    +0.166 C 
BRANCH  93  94
ATOM     94  OG  SER A   7      -4.911 -14.002   1.157  0.00  0.00    -0.380 OA
ATOM     95  H   SER A   7      -4.814 -13.904   2.137  0.00  0.00    +0.211 HD
ENDBRANCH  93  94
ENDBRANCH   1  93
TORSDOF 39
REMARK  Name = ../refined-set-2016/3cd7/3cd7_pocket.pdb
REMARK  246 active torsions:
REMARK  status: ('A' for Active; 'I' for Inactive)
REMARK    1  A    between atoms: _1  and  _3
REMARK    2  A    between atoms: _3  and  _4
REMARK    3  A    between atoms: _3  and  _6
REMARK    4  A    between atoms: _6  and  _7
REMARK    5  A    between atoms: _7  and  _8
REMARK    6  A    between atoms: _11  and  _13
REMARK    7  A    between atoms: _13  and  _14
REMARK    8  A    between atoms: _16  and  _18
REMARK    9  A    between atoms: _18  and  _19
REMARK   10  A    between atoms: _18  and  _21
REMARK   11  A    between atoms: _23  and  _25
REMARK   12  A    between atoms: _25  and  _26
REMARK   13  A    between atoms: _25  and  _28
REMARK   14  A    between atoms: _28  and  _29
REMARK   15  A    between atoms: _32  and  _34
REMARK   16  A    between atoms: _34  and  _35
REMARK   17  A    between atoms: _34  and  _37
REMARK   18  A    between atoms: _40  and  _42
REMARK   19  A    between atoms: _42  and  _43
REMARK   20  A    between atoms: _46  and  _48
REMARK   21  A    between atoms: _48  and  _49
REMARK   22  A    between atoms: _48  and  _51
REMARK   23  A    between atoms: _51  and  _52
REMARK   24  A    between atoms: _54  and  _56
REMARK   25  A    between atoms: _56  and  _57
REMARK   26  A    between atoms: _56  and  _59
REMARK   27  A    between atoms: _59  and  _60
REMARK   28  A    between atoms: _63  and  _65
REMARK   29  A    between atoms: _65  and  _66
REMARK   30  A    between atoms: _65  and  _68
REMARK   31  A    between atoms: _68  and  _69
REMARK   32  A    between atoms: _74  and  _76
REMARK   33  A    between atoms: _76  and  _77
REMARK   34  A    between atoms: _76  and  _79
REMARK   35  A    between atoms: _79  and  _80
REMARK   36  A    between atoms: _80  and  _81
REMARK   37  A    between atoms: _81  and  _82
REMARK   38  A    between atoms: _91  and  _93
REMARK   39  A    between atoms: _93  and  _94
REMARK   40  A    between atoms: _96  and  _98
REMARK   41  A    between atoms: _98  and  _99
REMARK   42  A    between atoms: _98  and  _101
REMARK   43  A    between atoms: _104  and  _106
REMARK   44  A    between atoms: _106  and  _107
REMARK   45  A    between atoms: _106  and  _109
REMARK   46  A    between atoms: _109  and  _110
REMARK   47  A    between atoms: _113  and  _115
REMARK   48  A    between atoms: _115  and  _116
REMARK   49  A    between atoms: _115  and  _118
REMARK   50  A    between atoms: _118  and  _119
REMARK   51  A    between atoms: _119  and  _120
REMARK   52  A    between atoms: _120  and  _121
REMARK   53  A    between atoms: _121  and  _122
REMARK   54  A    between atoms: _126  and  _128
REMARK   55  A    between atoms: _128  and  _129
REMARK   56  A    between atoms: _128  and  _131
REMARK   57  A    between atoms: _131  and  _132
REMARK   58  A    between atoms: _132  and  _133
REMARK   59  A    between atoms: _133  and  _134
REMARK   60  A    between atoms: _134  and  _135
REMARK   61  A    between atoms: _139  and  _141
REMARK   62  A    between atoms: _141  and  _142
REMARK   63  A    between atoms: _141  and  _144
REMARK   64  A    between atoms: _144  and  _145
REMARK   65  A    between atoms: _150  and  _152
REMARK   66  A    between atoms: _152  and  _153
REMARK   67  A    between atoms: _152  and  _155
REMARK   68  A    between atoms: _155  and  _156
REMARK   69  A    between atoms: _161  and  _163
REMARK   70  A    between atoms: _163  and  _164
REMARK   71  A    between atoms: _167  and  _169
REMARK   72  A    between atoms: _169  and  _170
REMARK   73  A    between atoms: _169  and  _172
REMARK   74  A    between atoms: _172  and  _173
REMARK   75  A    between atoms: _178  and  _180
REMARK   76  A    between atoms: _180  and  _181
REMARK   77  A    between atoms: _184  and  _186
REMARK   78  A    between atoms: _186  and  _187
REMARK   79  A    between atoms: _190  and  _192
REMARK   80  A    between atoms: _192  and  _193
REMARK   81  A    between atoms: _192  and  _195
REMARK   82  A    between atoms: _195  and  _196
REMARK   83  A    between atoms: _201  and  _203
REMARK   84  A    between atoms: _203  and  _204
REMARK   85  A    between atoms: _203  and  _206
REMARK   86  A    between atoms: _206  and  _207
REMARK   87  A    between atoms: _210  and  _212
REMARK   88  A    between atoms: _212  and  _213
REMARK   89  A    between atoms: _215  and  _217
REMARK   90  A    between atoms: _217  and  _218
REMARK   91  A    between atoms: _217  and  _220
REMARK   92  A    between atoms: _220  and  _221
REMARK   93  A    between atoms: _221  and  _222
REMARK   94  A    between atoms: _225  and  _227
REMARK   95  A    between atoms: _227  and  _228
REMARK   96  A    between atoms: _227  and  _230
REMARK   97  A    between atoms: _230  and  _231
REMARK   98  A    between atoms: _234  and  _236
REMARK   99  A    between atoms: _236  and  _237
REMARK  100  A    between atoms: _236  and  _239
REMARK  101  A    between atoms: _239  and  _240
REMARK  102  A    between atoms: _242  and  _244
REMARK  103  A    between atoms: _244  and  _245
REMARK  104  A    between atoms: _244  and  _247
REMARK  105  A    between atoms: _247  and  _248
REMARK  106  A    between atoms: _251  and  _253
REMARK  107  A    between atoms: _253  and  _254
REMARK  108  A    between atoms: _253  and  _256
REMARK  109  A    between atoms: _256  and  _257
REMARK  110  A    between atoms: _257  and  _258
REMARK  111  A    between atoms: _260  and  _262
REMARK  112  A    between atoms: _262  and  _263
REMARK  113  A    between atoms: _266  and  _268
REMARK  114  A    between atoms: _268  and  _269
REMARK  115  A    between atoms: _272  and  _274
REMARK  116  A    between atoms: _274  and  _275
REMARK  117  A    between atoms: _274  and  _277
REMARK  118  A    between atoms: _277  and  _278
REMARK  119  A    between atoms: _281  and  _283
REMARK  120  A    between atoms: _283  and  _284
REMARK  121  A    between atoms: _287  and  _289
REMARK  122  A    between atoms: _289  and  _290
REMARK  123  A    between atoms: _293  and  _295
REMARK  124  A    between atoms: _295  and  _296
REMARK  125  A    between atoms: _298  and  _300
REMARK  126  A    between atoms: _300  and  _301
REMARK  127  A    between atoms: _300  and  _303
REMARK  128  A    between atoms: _303  and  _304
REMARK  129  A    between atoms: _309  and  _311
REMARK  130  A    between atoms: _311  and  _312
REMARK  131  A    between atoms: _311  and  _314
REMARK  132  A    between atoms: _314  and  _315
REMARK  133  A    between atoms: _315  and  _316
REMARK  134  A    between atoms: _319  and  _321
REMARK  135  A    between atoms: _321  and  _322
REMARK  136  A    between atoms: _321  and  _324
REMARK  137  A    between atoms: _324  and  _325
REMARK  138  A    between atoms: _328  and  _330
REMARK  139  A    between atoms: _330  and  _331
REMARK  140  A    between atoms: _330  and  _333
REMARK  141  A    between atoms: _333  and  _334
REMARK  142  A    between atoms: _334  and  _335
REMARK  143  A    between atoms: _335  and  _336
REMARK  144  A    between atoms: _345  and  _347
REMARK  145  A    between atoms: _347  and  _348
REMARK  146  A    between atoms: _351  and  _352
REMARK  147  A    between atoms: _357  and  _359
REMARK  148  A    between atoms: _359  and  _360
REMARK  149  A    between atoms: _359  and  _362
REMARK  150  A    between atoms: _362  and  _363
REMARK  151  A    between atoms: _363  and  _364
REMARK  152  A    between atoms: _366  and  _368
REMARK  153  A    between atoms: _368  and  _369
REMARK  154  A    between atoms: _368  and  _371
REMARK  155  A    between atoms: _371  and  _372
REMARK  156  A    between atoms: _372  and  _373
REMARK  157  A    between atoms: _375  and  _377
REMARK  158  A    between atoms: _377  and  _378
REMARK  159  A    between atoms: _377  and  _380
REMARK  160  A    between atoms: _380  and  _381
REMARK  161  A    between atoms: _386  and  _388
REMARK  162  A    between atoms: _388  and  _389
REMARK  163  A    between atoms: _388  and  _391
REMARK  164  A    between atoms: _391  and  _392
REMARK  165  A    between atoms: _395  and  _397
REMARK  166  A    between atoms: _397  and  _398
REMARK  167  A    between atoms: _397  and  _400
REMARK  168  A    between atoms: _400  and  _401
REMARK  169  A    between atoms: _403  and  _405
REMARK  170  A    between atoms: _405  and  _406
REMARK  171  A    between atoms: _405  and  _408
REMARK  172  A    between atoms: _408  and  _409
REMARK  173  A    between atoms: _409  and  _410
REMARK  174  A    between atoms: _410  and  _411
REMARK  175  A    between atoms: _411  and  _412
REMARK  176  A    between atoms: _416  and  _418
REMARK  177  A    between atoms: _418  and  _419
REMARK  178  A    between atoms: _418  and  _421
REMARK  179  A    between atoms: _421  and  _422
REMARK  180  A    between atoms: _425  and  _427
REMARK  181  A    between atoms: _427  and  _428
REMARK  182  A    between atoms: _427  and  _430
REMARK  183  A    between atoms: _430  and  _431
REMARK  184  A    between atoms: _431  and  _432
REMARK  185  A    between atoms: _435  and  _437
REMARK  186  A    between atoms: _437  and  _438
REMARK  187  A    between atoms: _441  and  _443
REMARK  188  A    between atoms: _443  and  _444
REMARK  189  A    between atoms: _443  and  _446
REMARK  190  A    between atoms: _449  and  _451
REMARK  191  A    between atoms: _451  and  _452
REMARK  192  A    between atoms: _451  and  _454
REMARK  193  A    between atoms: _454  and  _455
REMARK  194  A    between atoms: _457  and  _459
REMARK  195  A    between atoms: _459  and  _460
REMARK  196  A    between atoms: _462  and  _464
REMARK  197  A    between atoms: _464  and  _465
REMARK  198  A    between atoms: _464  and  _467
REMARK  199  A    between atoms: _467  and  _468
REMARK  200  A    between atoms: _473  and  _475
REMARK  201  A    between atoms: _475  and  _476
REMARK  202  A    between atoms: _475  and  _478
REMARK  203  A    between atoms: _478  and  _479
REMARK  204  A    between atoms: _484  and  _485
REMARK  205  A    between atoms: _487  and  _489
REMARK  206  A    between atoms: _489  and  _490
REMARK  207  A    between atoms: _489  and  _492
REMARK  208  A    between atoms: _494  and  _496
REMARK  209  A    between atoms: _496  and  _497
REMARK  210  A    between atoms: _496  and  _499
REMARK  211  A    between atoms: _499  and  _500
REMARK  212  A    between atoms: _503  and  _505
REMARK  213  A    between atoms: _505  and  _506
REMARK  214  A    between atoms: _505  and  _508
REMARK  215  A    between atoms: _508  and  _509
REMARK  216  A    between atoms: _512  and  _514
REMARK  217  A    between atoms: _514  and  _515
REMARK  218  A    between atoms: _514  and  _517
REMARK  219  A    between atoms: _517  and  _518
REMARK  220  A    between atoms: _518  and  _519
REMARK  221  A    between atoms: _519  and  _520
REMARK  222  A    between atoms: _520  and  _521
REMARK  223  A    between atoms: _525  and  _527
REMARK  224  A    between atoms: _527  and  _528
REMARK  225  A    between atoms: _527  and  _530
REMARK  226  A    between atoms: _530  and  _531
REMARK  227  A    between atoms: _531  and  _532
REMARK  228  A    between atoms: _532  and  _533
REMARK  229  A    between atoms: _533  and  _534
REMARK  230  A    between atoms: _538  and  _540
REMARK  231  A    between atoms: _540  and  _541
REMARK  232  A    between atoms: _540  and  _543
REMARK  233  A    between atoms: _543  and  _544
REMARK  234  A    between atoms: _544  and  _545
REMARK  235  A    between atoms: _545  and  _546
REMARK  236  A    between atoms: _555  and  _557
REMARK  237  A    between atoms: _557  and  _558
REMARK  238  A    between atoms: _557  and  _560
REMARK  239  A    between atoms: _560  and  _561
REMARK  240  A    between atoms: _564  and  _566
REMARK  241  A    between atoms: _566  and  _567
REMARK  242  A    between atoms: _570  and  _572
REMARK  243  A    between atoms: _572  and  _573
REMARK  244  A    between atoms: _572  and  _575
REMARK  245  A    between atoms: _575  and  _576
REMARK  246  A    between atoms: _576  and  _577
REMARK                            x       y       z     vdW  Elec       q    Type
REMARK                         _______ _______ _______ _____ _____    ______ ____
ROOT
ATOM      1  CA  LEU A   2     -12.230  -8.996  -2.307  0.00  0.00    +0.149 C 
ENDROOT
BRANCH   1   3
ATOM      2  C   VAL A   1     -12.525 -10.102  -4.484  0.00  0.00    +0.238 C 
ATOM      3  N   LEU A   2     -12.618  -9.006  -3.727  0.00  0.00    -0.297 N 
ATOM      4  H   LEU A   2     -12.977  -8.129  -4.155  0.00  0.00    +0.150 HD
ATOM      5  O   VAL A   1     -12.274 -11.212  -4.019  0.00  0.00    -0.274 OA
BRANCH   2   6
ATOM      6  CA  VAL A   1     -12.787  -9.946  -5.995  0.00  0.00    +0.145 C 
BRANCH   6   7
ATOM      7  CB  VAL A   1     -11.536  -9.376  -6.717  0.00  0.00    +0.025 C 
ATOM      8  CG2 VAL A   1     -10.268 -10.144  -6.317  0.00  0.00    +0.002 C 
ATOM      9  CG1 VAL A   1     -11.734  -9.438  -8.224  0.00  0.00    +0.002 C 
ENDBRANCH   6   7
BRANCH   6  10
ATOM     10  N   VAL A   1     -13.982  -9.140  -6.260  0.00  0.00    -0.238 NA
ATOM     11  H   VAL A   1     -13.877  -8.178  -6.642  0.00  0.00    +0.142 HD
ENDBRANCH   6  10
ENDBRANCH   2   6
ENDBRANCH   1   3
BRANCH   1  12
ATOM     12  C   LEU A   2     -13.372  -9.175  -1.289  0.00  0.00    +0.241 C 
ATOM     13  O   LEU A   2     -13.102  -9.378  -0.106  0.00  0.00    -0.273 OA
ATOM     14  N   LYS A   3     -14.622  -9.098  -1.749  0.00  0.00    -0.298 N 
ATOM     15  H   LYS A   3     -14.766  -8.806  -2.737  0.00  0.00    +0.150 HD
BRANCH  14  16
ATOM     16  CA  LYS A   3     -15.811  -9.405  -0.932  0.00  0.00    +0.137 C 
BRANCH  16  17
ATOM     17  C   LYS A   3     -16.026  -8.462   0.259  0.00  0.00    +0.227 C 
ATOM     18  O   LYS A   3     -16.471  -8.882   1.327  0.00  0.00    -0.286 OA
ENDBRANCH  16  17
BRANCH  16  19
ATOM     19  CB  LYS A   3     -15.776 -10.868  -0.457  0.00  0.00    +0.028 C 
BRANCH  19  20
ATOM     20  CG  LYS A   3     -15.518 -11.883  -1.573  0.00  0.00    -0.000 C 
BRANCH  20  21
ATOM     21  CD  LYS A   3     -16.577 -11.777  -2.676  0.00  0.00    -0.024 C 
BRANCH  21  22
ATOM     22  CE  LYS A   3     -16.539 -12.967  -3.622  0.00  0.00    -0.086 C 
BRANCH  22  23
ATOM     23  NZ  LYS A   3     -15.213 -13.105  -4.279  0.00  0.00    +0.380 N 
ATOM     24  HZ1 LYS A   3     -14.480 -13.239  -3.553  0.00  0.00    -0.089 HD
ATOM     25  HZ2 LYS A   3     -15.007 -12.245  -4.826  0.00  0.00    -0.089 HD
ATOM     26  HZ3 LYS A   3     -15.227 -13.927  -4.916  0.00  0.00    -0.089 HD
ENDBRANCH  22  23
ENDBRANCH  21  22
ENDBRANCH  20  21
ENDBRANCH  19  20
ENDBRANCH  16  19
ENDBRANCH  14  16
ENDBRANCH   1  12
BRANCH   1  27
ATOM     27  CB  LEU A   2     -11.453  -7.716  -1.986  0.00  0.00    +0.029 C 
BRANCH  27  28
ATOM     28  CG  LEU A   2     -10.150  -7.535  -2.761  0.00  0.00    +0.002 C 
ATOM     29  CD2 LEU A   2      -9.107  -8.545  -2.307  0.00  0.00    +0.000 C 
ATOM     30  CD1 LEU A   2      -9.632  -6.109  -2.611  0.00  0.00    +0.000 C 
ENDBRANCH  27  28
ENDBRANCH   1  27
TORSDOF 14
REMARK  Name = ../refined-set-2016/3cd7/3cd7_pocket.pdb
REMARK  246 active torsions:
REMARK  status: ('A' for Active; 'I' for Inactive)
REMARK    1  A    between atoms: _1  and  _3
REMARK    2  A    between atoms: _3  and  _4
REMARK    3  A    between atoms: _3  and  _6
REMARK    4  A    between atoms: _6  and  _7
REMARK    5  A    between atoms: _7  and  _8
REMARK    6  A    between atoms: _11  and  _13
REMARK    7  A    between atoms: _13  and  _14
REMARK    8  A    between atoms: _16  and  _18
REMARK    9  A    between atoms: _18  and  _19
REMARK   10  A    between atoms: _18  and  _21
REMARK   11  A    between atoms: _23  and  _25
REMARK   12  A    between atoms: _25  and  _26
REMARK   13  A    between atoms: _25  and  _28
REMARK   14  A    between atoms: _28  and  _29
REMARK   15  A    between atoms: _32  and  _34
REMARK   16  A    between atoms: _34  and  _35
REMARK   17  A    between atoms: _34  and  _37
REMARK   18  A    between atoms: _40  and  _42
REMARK   19  A    between atoms: _42  and  _43
REMARK   20  A    between atoms: _46  and  _48
REMARK   21  A    between atoms: _48  and  _49
REMARK   22  A    between atoms: _48  and  _51
REMARK   23  A    between atoms: _51  and  _52
REMARK   24  A    between atoms: _54  and  _56
REMARK   25  A    between atoms: _56  and  _57
REMARK   26  A    between atoms: _56  and  _59
REMARK   27  A    between atoms: _59  and  _60
REMARK   28  A    between atoms: _63  and  _65
REMARK   29  A    between atoms: _65  and  _66
REMARK   30  A    between atoms: _65  and  _68
REMARK   31  A    between atoms: _68  and  _69
REMARK   32  A    between atoms: _74  and  _76
REMARK   33  A    between atoms: _76  and  _77
REMARK   34  A    between atoms: _76  and  _79
REMARK   35  A    between atoms: _79  and  _80
REMARK   36  A    between atoms: _80  and  _81
REMARK   37  A    between atoms: _81  and  _82
REMARK   38  A    between atoms: _91  and  _93
REMARK   39  A    between atoms: _93  and  _94
REMARK   40  A    between atoms: _96  and  _98
REMARK   41  A    between atoms: _98  and  _99
REMARK   42  A    between atoms: _98  and  _101
REMARK   43  A    between atoms: _104  and  _106
REMARK   44  A    between atoms: _106  and  _107
REMARK   45  A    between atoms: _106  and  _109
REMARK   46  A    between atoms: _109  and  _110
REMARK   47  A    between atoms: _113  and  _115
REMARK   48  A    between atoms: _115  and  _116
REMARK   49  A    between atoms: _115  and  _118
REMARK   50  A    between atoms: _118  and  _119
REMARK   51  A    between atoms: _119  and  _120
REMARK   52  A    between atoms: _120  and  _121
REMARK   53  A    between atoms: _121  and  _122
REMARK   54  A    between atoms: _126  and  _128
REMARK   55  A    between atoms: _128  and  _129
REMARK   56  A    between atoms: _128  and  _131
REMARK   57  A    between atoms: _131  and  _132
REMARK   58  A    between atoms: _132  and  _133
REMARK   59  A    between atoms: _133  and  _134
REMARK   60  A    between atoms: _134  and  _135
REMARK   61  A    between atoms: _139  and  _141
REMARK   62  A    between atoms: _141  and  _142
REMARK   63  A    between atoms: _141  and  _144
REMARK   64  A    between atoms: _144  and  _145
REMARK   65  A    between atoms: _150  and  _152
REMARK   66  A    between atoms: _152  and  _153
REMARK   67  A    between atoms: _152  and  _155
REMARK   68  A    between atoms: _155  and  _156
REMARK   69  A    between atoms: _161  and  _163
REMARK   70  A    between atoms: _163  and  _164
REMARK   71  A    between atoms: _167  and  _169
REMARK   72  A    between atoms: _169  and  _170
REMARK   73  A    between atoms: _169  and  _172
REMARK   74  A    between atoms: _172  and  _173
REMARK   75  A    between atoms: _178  and  _180
REMARK   76  A    between atoms: _180  and  _181
REMARK   77  A    between atoms: _184  and  _186
REMARK   78  A    between atoms: _186  and  _187
REMARK   79  A    between atoms: _190  and  _192
REMARK   80  A    between atoms: _192  and  _193
REMARK   81  A    between atoms: _192  and  _195
REMARK   82  A    between atoms: _195  and  _196
REMARK   83  A    between atoms: _201  and  _203
REMARK   84  A    between atoms: _203  and  _204
REMARK   85  A    between atoms: _203  and  _206
REMARK   86  A    between atoms: _206  and  _207
REMARK   87  A    between atoms: _210  and  _212
REMARK   88  A    between atoms: _212  and  _213
REMARK   89  A    between atoms: _215  and  _217
REMARK   90  A    between atoms: _217  and  _218
REMARK   91  A    between atoms: _217  and  _220
REMARK   92  A    between atoms: _220  and  _221
REMARK   93  A    between atoms: _221  and  _222
REMARK   94  A    between atoms: _225  and  _227
REMARK   95  A    between atoms: _227  and  _228
REMARK   96  A    between atoms: _227  and  _230
REMARK   97  A    between atoms: _230  and  _231
REMARK   98  A    between atoms: _234  and  _236
REMARK   99  A    between atoms: _236  and  _237
REMARK  100  A    between atoms: _236  and  _239
REMARK  101  A    between atoms: _239  and  _240
REMARK  102  A    between atoms: _242  and  _244
REMARK  103  A    between atoms: _244  and  _245
REMARK  104  A    between atoms: _244  and  _247
REMARK  105  A    between atoms: _247  and  _248
REMARK  106  A    between atoms: _251  and  _253
REMARK  107  A    between atoms: _253  and  _254
REMARK  108  A    between atoms: _253  and  _256
REMARK  109  A    between atoms: _256  and  _257
REMARK  110  A    between atoms: _257  and  _258
REMARK  111  A    between atoms: _260  and  _262
REMARK  112  A    between atoms: _262  and  _263
REMARK  113  A    between atoms: _266  and  _268
REMARK  114  A    between atoms: _268  and  _269
REMARK  115  A    between atoms: _272  and  _274
REMARK  116  A    between atoms: _274  and  _275
REMARK  117  A    between atoms: _274  and  _277
REMARK  118  A    between atoms: _277  and  _278
REMARK  119  A    between atoms: _281  and  _283
REMARK  120  A    between atoms: _283  and  _284
REMARK  121  A    between atoms: _287  and  _289
REMARK  122  A    between atoms: _289  and  _290
REMARK  123  A    between atoms: _293  and  _295
REMARK  124  A    between atoms: _295  and  _296
REMARK  125  A    between atoms: _298  and  _300
REMARK  126  A    between atoms: _300  and  _301
REMARK  127  A    between atoms: _300  and  _303
REMARK  128  A    between atoms: _303  and  _304
REMARK  129  A    between atoms: _309  and  _311
REMARK  130  A    between atoms: _311  and  _312
REMARK  131  A    between atoms: _311  and  _314
REMARK  132  A    between atoms: _314  and  _315
REMARK  133  A    between atoms: _315  and  _316
REMARK  134  A    between atoms: _319  and  _321
REMARK  135  A    between atoms: _321  and  _322
REMARK  136  A    between atoms: _321  and  _324
REMARK  137  A    between atoms: _324  and  _325
REMARK  138  A    between atoms: _328  and  _330
REMARK  139  A    between atoms: _330  and  _331
REMARK  140  A    between atoms: _330  and  _333
REMARK  141  A    between atoms: _333  and  _334
REMARK  142  A    between atoms: _334  and  _335
REMARK  143  A    between atoms: _335  and  _336
REMARK  144  A    between atoms: _345  and  _347
REMARK  145  A    between atoms: _347  and  _348
REMARK  146  A    between atoms: _351  and  _352
REMARK  147  A    between atoms: _357  and  _359
REMARK  148  A    between atoms: _359  and  _360
REMARK  149  A    between atoms: _359  and  _362
REMARK  150  A    between atoms: _362  and  _363
REMARK  151  A    between atoms: _363  and  _364
REMARK  152  A    between atoms: _366  and  _368
REMARK  153  A    between atoms: _368  and  _369
REMARK  154  A    between atoms: _368  and  _371
REMARK  155  A    between atoms: _371  and  _372
REMARK  156  A    between atoms: _372  and  _373
REMARK  157  A    between atoms: _375  and  _377
REMARK  158  A    between atoms: _377  and  _378
REMARK  159  A    between atoms: _377  and  _380
REMARK  160  A    between atoms: _380  and  _381
REMARK  161  A    between atoms: _386  and  _388
REMARK  162  A    between atoms: _388  and  _389
REMARK  163  A    between atoms: _388  and  _391
REMARK  164  A    between atoms: _391  and  _392
REMARK  165  A    between atoms: _395  and  _397
REMARK  166  A    between atoms: _397  and  _398
REMARK  167  A    between atoms: _397  and  _400
REMARK  168  A    between atoms: _400  and  _401
REMARK  169  A    between atoms: _403  and  _405
REMARK  170  A    between atoms: _405  and  _406
REMARK  171  A    between atoms: _405  and  _408
REMARK  172  A    between atoms: _408  and  _409
REMARK  173  A    between atoms: _409  and  _410
REMARK  174  A    between atoms: _410  and  _411
REMARK  175  A    between atoms: _411  and  _412
REMARK  176  A    between atoms: _416  and  _418
REMARK  177  A    between atoms: _418  and  _419
REMARK  178  A    between atoms: _418  and  _421
REMARK  179  A    between atoms: _421  and  _422
REMARK  180  A    between atoms: _425  and  _427
REMARK  181  A    between atoms: _427  and  _428
REMARK  182  A    between atoms: _427  and  _430
REMARK  183  A    between atoms: _430  and  _431
REMARK  184  A    between atoms: _431  and  _432
REMARK  185  A    between atoms: _435  and  _437
REMARK  186  A    between atoms: _437  and  _438
REMARK  187  A    between atoms: _441  and  _443
REMARK  188  A    between atoms: _443  and  _444
REMARK  189  A    between atoms: _443  and  _446
REMARK  190  A    between atoms: _449  and  _451
REMARK  191  A    between atoms: _451  and  _452
REMARK  192  A    between atoms: _451  and  _454
REMARK  193  A    between atoms: _454  and  _455
REMARK  194  A    between atoms: _457  and  _459
REMARK  195  A    between atoms: _459  and  _460
REMARK  196  A    between atoms: _462  and  _464
REMARK  197  A    between atoms: _464  and  _465
REMARK  198  A    between atoms: _464  and  _467
REMARK  199  A    between atoms: _467  and  _468
REMARK  200  A    between atoms: _473  and  _475
REMARK  201  A    between atoms: _475  and  _476
REMARK  202  A    between atoms: _475  and  _478
REMARK  203  A    between atoms: _478  and  _479
REMARK  204  A    between atoms: _484  and  _485
REMARK  205  A    between atoms: _487  and  _489
REMARK  206  A    between atoms: _489  and  _490
REMARK  207  A    between atoms: _489  and  _492
REMARK  208  A    between atoms: _494  and  _496
REMARK  209  A    between atoms: _496  and  _497
REMARK  210  A    between atoms: _496  and  _499
REMARK  211  A    between atoms: _499  and  _500
REMARK  212  A    between atoms: _503  and  _505
REMARK  213  A    between atoms: _505  and  _506
REMARK  214  A    between atoms: _505  and  _508
REMARK  215  A    between atoms: _508  and  _509
REMARK  216  A    between atoms: _512  and  _514
REMARK  217  A    between atoms: _514  and  _515
REMARK  218  A    between atoms: _514  and  _517
REMARK  219  A    between atoms: _517  and  _518
REMARK  220  A    between atoms: _518  and  _519
REMARK  221  A    between atoms: _519  and  _520
REMARK  222  A    between atoms: _520  and  _521
REMARK  223  A    between atoms: _525  and  _527
REMARK  224  A    between atoms: _527  and  _528
REMARK  225  A    between atoms: _527  and  _530
REMARK  226  A    between atoms: _530  and  _531
REMARK  227  A    between atoms: _531  and  _532
REMARK  228  A    between atoms: _532  and  _533
REMARK  229  A    between atoms: _533  and  _534
REMARK  230  A    between atoms: _538  and  _540
REMARK  231  A    between atoms: _540  and  _541
REMARK  232  A    between atoms: _540  and  _543
REMARK  233  A    between atoms: _543  and  _544
REMARK  234  A    between atoms: _544  and  _545
REMARK  235  A    between atoms: _545  and  _546
REMARK  236  A    between atoms: _555  and  _557
REMARK  237  A    between atoms: _557  and  _558
REMARK  238  A    between atoms: _557  and  _560
REMARK  239  A    between atoms: _560  and  _561
REMARK  240  A    between atoms: _564  and  _566
REMARK  241  A    between atoms: _566  and  _567
REMARK  242  A    between atoms: _570  and  _572
REMARK  243  A    between atoms: _572  and  _573
REMARK  244  A    between atoms: _572  and  _575
REMARK  245  A    between atoms: _575  and  _576
REMARK  246  A    between atoms: _576  and  _577
REMARK                            x       y       z     vdW  Elec       q    Type
REMARK                         _______ _______ _______ _____ _____    ______ ____
ROOT
ATOM      1  C   LYS A   1      -3.850  -2.635  13.020  0.00  0.00    +0.238 C 
ATOM      2  O   LYS A   1      -2.975  -2.757  13.882  0.00  0.00    -0.274 OA
ATOM      3  N   ASN A   2      -3.604  -2.151  11.808  0.00  0.00    -0.298 N 
ATOM      4  H   ASN A   2      -4.402  -1.936  11.177  0.00  0.00    +0.150 HD
ENDROOT
BRANCH   1   5
ATOM      5  CA  LYS A   1      -5.296  -3.050  13.301  0.00  0.00    +0.145 C 
BRANCH   5   6
ATOM      6  N   LYS A   1      -6.192  -1.904  13.137  0.00  0.00    -0.238 NA
ATOM      7  H   LYS A   1      -6.469  -1.627  12.173  0.00  0.00    +0.142 HD
ENDBRANCH   5   6
BRANCH   5   8
ATOM      8  CB  LYS A   1      -5.699  -4.178  12.344  0.00  0.00    +0.026 C 
BRANCH   8   9
ATOM      9  CG  LYS A   1      -4.688  -5.327  12.179  0.00  0.00    -0.000 C 
BRANCH   9  10
ATOM     10  CD  LYS A   1      -5.071  -6.195  10.974  0.00  0.00    -0.024 C 
BRANCH  10  11
ATOM     11  CE  LYS A   1      -4.084  -7.345  10.721  0.00  0.00    -0.086 C 
BRANCH  11  12
ATOM     12  NZ  LYS A   1      -3.954  -8.256  11.877  0.00  0.00    +0.380 N 
ATOM     13  HZ1 LYS A   1      -3.614  -7.721  12.702  0.00  0.00    -0.089 HD
ATOM     14  HZ2 LYS A   1      -4.881  -8.675  12.093  0.00  0.00    -0.089 HD
ATOM     15  HZ3 LYS A   1      -3.276  -9.011  11.648  0.00  0.00    -0.089 HD
ENDBRANCH  11  12
ENDBRANCH  10  11
ENDBRANCH   9  10
ENDBRANCH   8   9
ENDBRANCH   5   8
ENDBRANCH   1   5
BRANCH   3  16
ATOM     16  CA  ASN A   2      -2.243  -1.913  11.338  0.00  0.00    +0.146 C 
BRANCH  16  17
ATOM     17  C   ASN A   2      -1.573  -0.653  11.872  0.00  0.00    +0.227 C 
ATOM     18  O   ASN A   2      -0.341  -0.561  11.850  0.00  0.00    -0.286 OA
ENDBRANCH  16  17
BRANCH  16  19
ATOM     19  CB  ASN A   2      -2.192  -1.913   9.813  0.00  0.00    +0.112 C 
BRANCH  19  20
ATOM     20  CG  ASN A   2      -2.242  -3.300   9.231  0.00  0.00    +0.222 C 
ATOM     21  OD1 ASN A   2      -2.253  -4.291   9.960  0.00  0.00    -0.275 OA
ATOM     22  ND2 ASN A   2      -2.282  -3.384   7.903  0.00  0.00    -0.329 N 
ATOM     23 HD21 ASN A   2      -2.325  -4.315   7.442  0.00  0.00    +0.145 HD
ATOM     24 HD22 ASN A   2      -2.271  -2.518   7.327  0.00  0.00    +0.145 HD
ENDBRANCH  19  20
ENDBRANCH  16  19
ENDBRANCH   3  16
TORSDOF 11
REMARK  Name = ../refined-set-2016/3cd7/3cd7_pocket.pdb
REMARK  246 active torsions:
REMARK  status: ('A' for Active; 'I' for Inactive)
REMARK    1  A    between atoms: _1  and  _3
REMARK    2  A    between atoms: _3  and  _4
REMARK    3  A    between atoms: _3  and  _6
REMARK    4  A    between atoms: _6  and  _7
REMARK    5  A    between atoms: _7  and  _8
REMARK    6  A    between atoms: _11  and  _13
REMARK    7  A    between atoms: _13  and  _14
REMARK    8  A    between atoms: _16  and  _18
REMARK    9  A    between atoms: _18  and  _19
REMARK   10  A    between atoms: _18  and  _21
REMARK   11  A    between atoms: _23  and  _25
REMARK   12  A    between atoms: _25  and  _26
REMARK   13  A    between atoms: _25  and  _28
REMARK   14  A    between atoms: _28  and  _29
REMARK   15  A    between atoms: _32  and  _34
REMARK   16  A    between atoms: _34  and  _35
REMARK   17  A    between atoms: _34  and  _37
REMARK   18  A    between atoms: _40  and  _42
REMARK   19  A    between atoms: _42  and  _43
REMARK   20  A    between atoms: _46  and  _48
REMARK   21  A    between atoms: _48  and  _49
REMARK   22  A    between atoms: _48  and  _51
REMARK   23  A    between atoms: _51  and  _52
REMARK   24  A    between atoms: _54  and  _56
REMARK   25  A    between atoms: _56  and  _57
REMARK   26  A    between atoms: _56  and  _59
REMARK   27  A    between atoms: _59  and  _60
REMARK   28  A    between atoms: _63  and  _65
REMARK   29  A    between atoms: _65  and  _66
REMARK   30  A    between atoms: _65  and  _68
REMARK   31  A    between atoms: _68  and  _69
REMARK   32  A    between atoms: _74  and  _76
REMARK   33  A    between atoms: _76  and  _77
REMARK   34  A    between atoms: _76  and  _79
REMARK   35  A    between atoms: _79  and  _80
REMARK   36  A    between atoms: _80  and  _81
REMARK   37  A    between atoms: _81  and  _82
REMARK   38  A    between atoms: _91  and  _93
REMARK   39  A    between atoms: _93  and  _94
REMARK   40  A    between atoms: _96  and  _98
REMARK   41  A    between atoms: _98  and  _99
REMARK   42  A    between atoms: _98  and  _101
REMARK   43  A    between atoms: _104  and  _106
REMARK   44  A    between atoms: _106  and  _107
REMARK   45  A    between atoms: _106  and  _109
REMARK   46  A    between atoms: _109  and  _110
REMARK   47  A    between atoms: _113  and  _115
REMARK   48  A    between atoms: _115  and  _116
REMARK   49  A    between atoms: _115  and  _118
REMARK   50  A    between atoms: _118  and  _119
REMARK   51  A    between atoms: _119  and  _120
REMARK   52  A    between atoms: _120  and  _121
REMARK   53  A    between atoms: _121  and  _122
REMARK   54  A    between atoms: _126  and  _128
REMARK   55  A    between atoms: _128  and  _129
REMARK   56  A    between atoms: _128  and  _131
REMARK   57  A    between atoms: _131  and  _132
REMARK   58  A    between atoms: _132  and  _133
REMARK   59  A    between atoms: _133  and  _134
REMARK   60  A    between atoms: _134  and  _135
REMARK   61  A    between atoms: _139  and  _141
REMARK   62  A    between atoms: _141  and  _142
REMARK   63  A    between atoms: _141  and  _144
REMARK   64  A    between atoms: _144  and  _145
REMARK   65  A    between atoms: _150  and  _152
REMARK   66  A    between atoms: _152  and  _153
REMARK   67  A    between atoms: _152  and  _155
REMARK   68  A    between atoms: _155  and  _156
REMARK   69  A    between atoms: _161  and  _163
REMARK   70  A    between atoms: _163  and  _164
REMARK   71  A    between atoms: _167  and  _169
REMARK   72  A    between atoms: _169  and  _170
REMARK   73  A    between atoms: _169  and  _172
REMARK   74  A    between atoms: _172  and  _173
REMARK   75  A    between atoms: _178  and  _180
REMARK   76  A    between atoms: _180  and  _181
REMARK   77  A    between atoms: _184  and  _186
REMARK   78  A    between atoms: _186  and  _187
REMARK   79  A    between atoms: _190  and  _192
REMARK   80  A    between atoms: _192  and  _193
REMARK   81  A    between atoms: _192  and  _195
REMARK   82  A    between atoms: _195  and  _196
REMARK   83  A    between atoms: _201  and  _203
REMARK   84  A    between atoms: _203  and  _204
REMARK   85  A    between atoms: _203  and  _206
REMARK   86  A    between atoms: _206  and  _207
REMARK   87  A    between atoms: _210  and  _212
REMARK   88  A    between atoms: _212  and  _213
REMARK   89  A    between atoms: _215  and  _217
REMARK   90  A    between atoms: _217  and  _218
REMARK   91  A    between atoms: _217  and  _220
REMARK   92  A    between atoms: _220  and  _221
REMARK   93  A    between atoms: _221  and  _222
REMARK   94  A    between atoms: _225  and  _227
REMARK   95  A    between atoms: _227  and  _228
REMARK   96  A    between atoms: _227  and  _230
REMARK   97  A    between atoms: _230  and  _231
REMARK   98  A    between atoms: _234  and  _236
REMARK   99  A    between atoms: _236  and  _237
REMARK  100  A    between atoms: _236  and  _239
REMARK  101  A    between atoms: _239  and  _240
REMARK  102  A    between atoms: _242  and  _244
REMARK  103  A    between atoms: _244  and  _245
REMARK  104  A    between atoms: _244  and  _247
REMARK  105  A    between atoms: _247  and  _248
REMARK  106  A    between atoms: _251  and  _253
REMARK  107  A    between atoms: _253  and  _254
REMARK  108  A    between atoms: _253  and  _256
REMARK  109  A    between atoms: _256  and  _257
REMARK  110  A    between atoms: _257  and  _258
REMARK  111  A    between atoms: _260  and  _262
REMARK  112  A    between atoms: _262  and  _263
REMARK  113  A    between atoms: _266  and  _268
REMARK  114  A    between atoms: _268  and  _269
REMARK  115  A    between atoms: _272  and  _274
REMARK  116  A    between atoms: _274  and  _275
REMARK  117  A    between atoms: _274  and  _277
REMARK  118  A    between atoms: _277  and  _278
REMARK  119  A    between atoms: _281  and  _283
REMARK  120  A    between atoms: _283  and  _284
REMARK  121  A    between atoms: _287  and  _289
REMARK  122  A    between atoms: _289  and  _290
REMARK  123  A    between atoms: _293  and  _295
REMARK  124  A    between atoms: _295  and  _296
REMARK  125  A    between atoms: _298  and  _300
REMARK  126  A    between atoms: _300  and  _301
REMARK  127  A    between atoms: _300  and  _303
REMARK  128  A    between atoms: _303  and  _304
REMARK  129  A    between atoms: _309  and  _311
REMARK  130  A    between atoms: _311  and  _312
REMARK  131  A    between atoms: _311  and  _314
REMARK  132  A    between atoms: _314  and  _315
REMARK  133  A    between atoms: _315  and  _316
REMARK  134  A    between atoms: _319  and  _321
REMARK  135  A    between atoms: _321  and  _322
REMARK  136  A    between atoms: _321  and  _324
REMARK  137  A    between atoms: _324  and  _325
REMARK  138  A    between atoms: _328  and  _330
REMARK  139  A    between atoms: _330  and  _331
REMARK  140  A    between atoms: _330  and  _333
REMARK  141  A    between atoms: _333  and  _334
REMARK  142  A    between atoms: _334  and  _335
REMARK  143  A    between atoms: _335  and  _336
REMARK  144  A    between atoms: _345  and  _347
REMARK  145  A    between atoms: _347  and  _348
REMARK  146  A    between atoms: _351  and  _352
REMARK  147  A    between atoms: _357  and  _359
REMARK  148  A    between atoms: _359  and  _360
REMARK  149  A    between atoms: _359  and  _362
REMARK  150  A    between atoms: _362  and  _363
REMARK  151  A    between atoms: _363  and  _364
REMARK  152  A    between atoms: _366  and  _368
REMARK  153  A    between atoms: _368  and  _369
REMARK  154  A    between atoms: _368  and  _371
REMARK  155  A    between atoms: _371  and  _372
REMARK  156  A    between atoms: _372  and  _373
REMARK  157  A    between atoms: _375  and  _377
REMARK  158  A    between atoms: _377  and  _378
REMARK  159  A    between atoms: _377  and  _380
REMARK  160  A    between atoms: _380  and  _381
REMARK  161  A    between atoms: _386  and  _388
REMARK  162  A    between atoms: _388  and  _389
REMARK  163  A    between atoms: _388  and  _391
REMARK  164  A    between atoms: _391  and  _392
REMARK  165  A    between atoms: _395  and  _397
REMARK  166  A    between atoms: _397  and  _398
REMARK  167  A    between atoms: _397  and  _400
REMARK  168  A    between atoms: _400  and  _401
REMARK  169  A    between atoms: _403  and  _405
REMARK  170  A    between atoms: _405  and  _406
REMARK  171  A    between atoms: _405  and  _408
REMARK  172  A    between atoms: _408  and  _409
REMARK  173  A    between atoms: _409  and  _410
REMARK  174  A    between atoms: _410  and  _411
REMARK  175  A    between atoms: _411  and  _412
REMARK  176  A    between atoms: _416  and  _418
REMARK  177  A    between atoms: _418  and  _419
REMARK  178  A    between atoms: _418  and  _421
REMARK  179  A    between atoms: _421  and  _422
REMARK  180  A    between atoms: _425  and  _427
REMARK  181  A    between atoms: _427  and  _428
REMARK  182  A    between atoms: _427  and  _430
REMARK  183  A    between atoms: _430  and  _431
REMARK  184  A    between atoms: _431  and  _432
REMARK  185  A    between atoms: _435  and  _437
REMARK  186  A    between atoms: _437  and  _438
REMARK  187  A    between atoms: _441  and  _443
REMARK  188  A    between atoms: _443  and  _444
REMARK  189  A    between atoms: _443  and  _446
REMARK  190  A    between atoms: _449  and  _451
REMARK  191  A    between atoms: _451  and  _452
REMARK  192  A    between atoms: _451  and  _454
REMARK  193  A    between atoms: _454  and  _455
REMARK  194  A    between atoms: _457  and  _459
REMARK  195  A    between atoms: _459  and  _460
REMARK  196  A    between atoms: _462  and  _464
REMARK  197  A    between atoms: _464  and  _465
REMARK  198  A    between atoms: _464  and  _467
REMARK  199  A    between atoms: _467  and  _468
REMARK  200  A    between atoms: _473  and  _475
REMARK  201  A    between atoms: _475  and  _476
REMARK  202  A    between atoms: _475  and  _478
REMARK  203  A    between atoms: _478  and  _479
REMARK  204  A    between atoms: _484  and  _485
REMARK  205  A    between atoms: _487  and  _489
REMARK  206  A    between atoms: _489  and  _490
REMARK  207  A    between atoms: _489  and  _492
REMARK  208  A    between atoms: _494  and  _496
REMARK  209  A    between atoms: _496  and  _497
REMARK  210  A    between atoms: _496  and  _499
REMARK  211  A    between atoms: _499  and  _500
REMARK  212  A    between atoms: _503  and  _505
REMARK  213  A    between atoms: _505  and  _506
REMARK  214  A    between atoms: _505  and  _508
REMARK  215  A    between atoms: _508  and  _509
REMARK  216  A    between atoms: _512  and  _514
REMARK  217  A    between atoms: _514  and  _515
REMARK  218  A    between atoms: _514  and  _517
REMARK  219  A    between atoms: _517  and  _518
REMARK  220  A    between atoms: _518  and  _519
REMARK  221  A    between atoms: _519  and  _520
REMARK  222  A    between atoms: _520  and  _521
REMARK  223  A    between atoms: _525  and  _527
REMARK  224  A    between atoms: _527  and  _528
REMARK  225  A    between atoms: _527  and  _530
REMARK  226  A    between atoms: _530  and  _531
REMARK  227  A    between atoms: _531  and  _532
REMARK  228  A    between atoms: _532  and  _533
REMARK  229  A    between atoms: _533  and  _534
REMARK  230  A    between atoms: _538  and  _540
REMARK  231  A    between atoms: _540  and  _541
REMARK  232  A    between atoms: _540  and  _543
REMARK  233  A    between atoms: _543  and  _544
REMARK  234  A    between atoms: _544  and  _545
REMARK  235  A    between atoms: _545  and  _546
REMARK  236  A    between atoms: _555  and  _557
REMARK  237  A    between atoms: _557  and  _558
REMARK  238  A    between atoms: _557  and  _560
REMARK  239  A    between atoms: _560  and  _561
REMARK  240  A    between atoms: _564  and  _566
REMARK  241  A    between atoms: _566  and  _567
REMARK  242  A    between atoms: _570  and  _572
REMARK  243  A    between atoms: _572  and  _573
REMARK  244  A    between atoms: _572  and  _575
REMARK  245  A    between atoms: _575  and  _576
REMARK  246  A    between atoms: _576  and  _577
REMARK                            x       y       z     vdW  Elec       q    Type
REMARK                         _______ _______ _______ _____ _____    ______ ____
ROOT
ATOM      1  C   HIS A   3       2.839  -9.947   6.260  0.00  0.00    +0.241 C 
ATOM      2  N   ALA A   4       3.433  -8.763   6.149  0.00  0.00    -0.297 N 
ATOM      3  H   ALA A   4       3.064  -7.958   6.695  0.00  0.00    +0.150 HD
ATOM      4  O   HIS A   3       3.134 -10.908   5.548  0.00  0.00    -0.273 OA
ENDROOT
BRANCH   2   5
ATOM      5  CA  ALA A   4       4.591  -8.562   5.280  0.00  0.00    +0.149 C 
ATOM      6  CB  ALA A   4       5.289  -7.234   5.611  0.00  0.00    +0.031 C 
BRANCH   5   7
ATOM      7  C   ALA A   4       5.586  -9.721   5.379  0.00  0.00    +0.241 C 
ATOM      8  N   ALA A   5       5.866 -10.167   6.605  0.00  0.00    -0.297 N 
ATOM      9  H   ALA A   5       5.346  -9.764   7.410  0.00  0.00    +0.150 HD
ATOM     10  O   ALA A   4       6.061 -10.210   4.363  0.00  0.00    -0.273 OA
BRANCH   8  11
ATOM     11  CA  ALA A   5       6.867 -11.192   6.867  0.00  0.00    +0.149 C 
ATOM     12  CB  ALA A   5       6.990 -11.431   8.374  0.00  0.00    +0.031 C 
BRANCH  11  13
ATOM     13  C   ALA A   5       6.590 -12.512   6.156  0.00  0.00    +0.241 C 
ATOM     14  N   ASN A   6       5.314 -12.869   6.006  0.00  0.00    -0.297 N 
ATOM     15  H   ASN A   6       4.574 -12.297   6.462  0.00  0.00    +0.150 HD
ATOM     16  O   ALA A   5       7.521 -13.206   5.785  0.00  0.00    -0.273 OA
BRANCH  14  17
ATOM     17  CA  ASN A   6       4.922 -14.036   5.223  0.00  0.00    +0.158 C 
BRANCH  17  18
ATOM     18  C   ASN A   6       5.428 -13.983   3.778  0.00  0.00    +0.241 C 
ATOM     19  O   ASN A   6       6.026 -14.946   3.293  0.00  0.00    -0.273 OA
ATOM     20  N   ILE A   7       5.178 -12.871   3.097  0.00  0.00    -0.298 N 
ATOM     21  H   ILE A   7       4.696 -12.082   3.572  0.00  0.00    +0.150 HD
BRANCH  20  22
ATOM     22  CA  ILE A   7       5.564 -12.731   1.697  0.00  0.00    +0.137 C 
BRANCH  22  23
ATOM     23  CB  ILE A   7       4.867 -11.524   1.021  0.00  0.00    +0.026 C 
ATOM     24  CG2 ILE A   7       5.591 -11.141  -0.271  0.00  0.00    +0.002 C 
BRANCH  23  25
ATOM     25  CG1 ILE A   7       3.400 -11.845   0.691  0.00  0.00    +0.002 C 
ATOM     26  CD1 ILE A   7       2.495 -12.030   1.884  0.00  0.00    +0.000 C 
ENDBRANCH  23  25
ENDBRANCH  22  23
BRANCH  22  27
ATOM     27  C   ILE A   7       7.082 -12.621   1.591  0.00  0.00    +0.227 C 
ATOM     28  O   ILE A   7       7.694 -13.314   0.784  0.00  0.00    -0.286 OA
ENDBRANCH  22  27
ENDBRANCH  20  22
ENDBRANCH  17  18
BRANCH  17  29
ATOM     29  CB  ASN A   6       3.394 -14.209   5.218  0.00  0.00    +0.114 C 
BRANCH  29  30
ATOM     30  CG  ASN A   6       2.883 -14.961   6.434  0.00  0.00    +0.222 C 
ATOM     31  OD1 ASN A   6       3.614 -15.727   7.069  0.00  0.00    -0.275 OA
ATOM     32  ND2 ASN A   6       1.609 -14.755   6.756  0.00  0.00    -0.329 N 
ATOM     33 HD21 ASN A   6       1.192 -15.249   7.571  0.00  0.00    +0.145 HD
ATOM     34 HD22 ASN A   6       1.030 -14.100   6.193  0.00  0.00    +0.145 HD
ENDBRANCH  29  30
ENDBRANCH  17  29
ENDBRANCH  14  17
ENDBRANCH  11  13
ENDBRANCH   8  11
ENDBRANCH   5   7
ENDBRANCH   2   5
BRANCH   1  35
ATOM     35  CA  HIS A   3       1.774 -10.069   7.355  0.00  0.00    +0.155 C 
BRANCH  35  38
ATOM     36  C   ALA A   2       0.250  -8.619   8.572  0.00  0.00    +0.241 C 
ATOM     37  O   ALA A   2       0.373  -9.295   9.588  0.00  0.00    -0.273 OA
ATOM     38  N   HIS A   3       0.901  -8.898   7.448  0.00  0.00    -0.297 N 
ATOM     39  H   HIS A   3       0.789  -8.275   6.623  0.00  0.00    +0.150 HD
BRANCH  36  40
ATOM     40  CA  ALA A   2      -0.689  -7.413   8.553  0.00  0.00    +0.149 C 
ATOM     41  CB  ALA A   2      -1.837  -7.655   7.586  0.00  0.00    +0.031 C 
BRANCH  40  44
ATOM     42  C   ASN A   1       0.658  -5.453   9.124  0.00  0.00    +0.239 C 
ATOM     43  O   ASN A   1       0.747  -5.793  10.306  0.00  0.00    -0.274 OA
ATOM     44  N   ALA A   2       0.011  -6.169   8.212  0.00  0.00    -0.297 N 
ATOM     45  H   ALA A   2       0.000  -5.838   7.226  0.00  0.00    +0.150 HD
BRANCH  42  46
ATOM     46  CA  ASN A   1       1.333  -4.180   8.633  0.00  0.00    +0.154 C 
BRANCH  46  47
ATOM     47  N   ASN A   1       1.838  -3.403   9.761  0.00  0.00    -0.238 NA
ATOM     48  H   ASN A   1       2.147  -3.918  10.610  0.00  0.00    +0.142 HD
ENDBRANCH  46  47
BRANCH  46  49
ATOM     49  CB  ASN A   1       2.483  -4.559   7.704  0.00  0.00    +0.111 C 
BRANCH  49  50
ATOM     50  CG  ASN A   1       3.525  -5.421   8.388  0.00  0.00    +0.221 C 
ATOM     51  ND2 ASN A   1       4.506  -4.784   9.031  0.00  0.00    -0.329 N 
ATOM     52 HD21 ASN A   1       5.249  -5.327   9.516  0.00  0.00    +0.145 HD
ATOM     53 HD22 ASN A   1       4.528  -3.744   9.047  0.00  0.00    +0.145 HD
ATOM     54  OD1 ASN A   1       3.451  -6.646   8.337  0.00  0.00    -0.275 OA
ENDBRANCH  49  50
ENDBRANCH  46  49
ENDBRANCH  42  46
ENDBRANCH  40  44
ENDBRANCH  36  40
ENDBRANCH  35  38
BRANCH  35  55
ATOM     55  CB  HIS A   3       0.941 -11.351   7.189  0.00  0.00    +0.076 C 
BRANCH  55  56
ATOM     56  CG  HIS A   3       0.279 -11.487   5.849  0.00  0.00    +0.082 A 
ATOM     57  ND1 HIS A   3       0.210 -12.688   5.176  0.00  0.00    -0.227 NA
ATOM     58  CE1 HIS A   3      -0.440 -12.517   4.039  0.00  0.00    +0.199 A 
ATOM     59  NE2 HIS A   3      -0.786 -11.247   3.943  0.00  0.00    -0.221 NA
ATOM     60  CD2 HIS A   3      -0.360 -10.583   5.069  0.00  0.00    +0.115 A 
ENDBRANCH  55  56
ENDBRANCH  35  55
ENDBRANCH   1  35
TORSDOF 22
REMARK  Name = ../refined-set-2016/3cd7/3cd7_pocket.pdb
REMARK  246 active torsions:
REMARK  status: ('A' for Active; 'I' for Inactive)
REMARK    1  A    between atoms: _1  and  _3
REMARK    2  A    between atoms: _3  and  _4
REMARK    3  A    between atoms: _3  and  _6
REMARK    4  A    between atoms: _6  and  _7
REMARK    5  A    between atoms: _7  and  _8
REMARK    6  A    between atoms: _11  and  _13
REMARK    7  A    between atoms: _13  and  _14
REMARK    8  A    between atoms: _16  and  _18
REMARK    9  A    between atoms: _18  and  _19
REMARK   10  A    between atoms: _18  and  _21
REMARK   11  A    between atoms: _23  and  _25
REMARK   12  A    between atoms: _25  and  _26
REMARK   13  A    between atoms: _25  and  _28
REMARK   14  A    between atoms: _28  and  _29
REMARK   15  A    between atoms: _32  and  _34
REMARK   16  A    between atoms: _34  and  _35
REMARK   17  A    between atoms: _34  and  _37
REMARK   18  A    between atoms: _40  and  _42
REMARK   19  A    between atoms: _42  and  _43
REMARK   20  A    between atoms: _46  and  _48
REMARK   21  A    between atoms: _48  and  _49
REMARK   22  A    between atoms: _48  and  _51
REMARK   23  A    between atoms: _51  and  _52
REMARK   24  A    between atoms: _54  and  _56
REMARK   25  A    between atoms: _56  and  _57
REMARK   26  A    between atoms: _56  and  _59
REMARK   27  A    between atoms: _59  and  _60
REMARK   28  A    between atoms: _63  and  _65
REMARK   29  A    between atoms: _65  and  _66
REMARK   30  A    between atoms: _65  and  _68
REMARK   31  A    between atoms: _68  and  _69
REMARK   32  A    between atoms: _74  and  _76
REMARK   33  A    between atoms: _76  and  _77
REMARK   34  A    between atoms: _76  and  _79
REMARK   35  A    between atoms: _79  and  _80
REMARK   36  A    between atoms: _80  and  _81
REMARK   37  A    between atoms: _81  and  _82
REMARK   38  A    between atoms: _91  and  _93
REMARK   39  A    between atoms: _93  and  _94
REMARK   40  A    between atoms: _96  and  _98
REMARK   41  A    between atoms: _98  and  _99
REMARK   42  A    between atoms: _98  and  _101
REMARK   43  A    between atoms: _104  and  _106
REMARK   44  A    between atoms: _106  and  _107
REMARK   45  A    between atoms: _106  and  _109
REMARK   46  A    between atoms: _109  and  _110
REMARK   47  A    between atoms: _113  and  _115
REMARK   48  A    between atoms: _115  and  _116
REMARK   49  A    between atoms: _115  and  _118
REMARK   50  A    between atoms: _118  and  _119
REMARK   51  A    between atoms: _119  and  _120
REMARK   52  A    between atoms: _120  and  _121
REMARK   53  A    between atoms: _121  and  _122
REMARK   54  A    between atoms: _126  and  _128
REMARK   55  A    between atoms: _128  and  _129
REMARK   56  A    between atoms: _128  and  _131
REMARK   57  A    between atoms: _131  and  _132
REMARK   58  A    between atoms: _132  and  _133
REMARK   59  A    between atoms: _133  and  _134
REMARK   60  A    between atoms: _134  and  _135
REMARK   61  A    between atoms: _139  and  _141
REMARK   62  A    between atoms: _141  and  _142
REMARK   63  A    between atoms: _141  and  _144
REMARK   64  A    between atoms: _144  and  _145
REMARK   65  A    between atoms: _150  and  _152
REMARK   66  A    between atoms: _152  and  _153
REMARK   67  A    between atoms: _152  and  _155
REMARK   68  A    between atoms: _155  and  _156
REMARK   69  A    between atoms: _161  and  _163
REMARK   70  A    between atoms: _163  and  _164
REMARK   71  A    between atoms: _167  and  _169
REMARK   72  A    between atoms: _169  and  _170
REMARK   73  A    between atoms: _169  and  _172
REMARK   74  A    between atoms: _172  and  _173
REMARK   75  A    between atoms: _178  and  _180
REMARK   76  A    between atoms: _180  and  _181
REMARK   77  A    between atoms: _184  and  _186
REMARK   78  A    between atoms: _186  and  _187
REMARK   79  A    between atoms: _190  and  _192
REMARK   80  A    between atoms: _192  and  _193
REMARK   81  A    between atoms: _192  and  _195
REMARK   82  A    between atoms: _195  and  _196
REMARK   83  A    between atoms: _201  and  _203
REMARK   84  A    between atoms: _203  and  _204
REMARK   85  A    between atoms: _203  and  _206
REMARK   86  A    between atoms: _206  and  _207
REMARK   87  A    between atoms: _210  and  _212
REMARK   88  A    between atoms: _212  and  _213
REMARK   89  A    between atoms: _215  and  _217
REMARK   90  A    between atoms: _217  and  _218
REMARK   91  A    between atoms: _217  and  _220
REMARK   92  A    between atoms: _220  and  _221
REMARK   93  A    between atoms: _221  and  _222
REMARK   94  A    between atoms: _225  and  _227
REMARK   95  A    between atoms: _227  and  _228
REMARK   96  A    between atoms: _227  and  _230
REMARK   97  A    between atoms: _230  and  _231
REMARK   98  A    between atoms: _234  and  _236
REMARK   99  A    between atoms: _236  and  _237
REMARK  100  A    between atoms: _236  and  _239
REMARK  101  A    between atoms: _239  and  _240
REMARK  102  A    between atoms: _242  and  _244
REMARK  103  A    between atoms: _244  and  _245
REMARK  104  A    between atoms: _244  and  _247
REMARK  105  A    between atoms: _247  and  _248
REMARK  106  A    between atoms: _251  and  _253
REMARK  107  A    between atoms: _253  and  _254
REMARK  108  A    between atoms: _253  and  _256
REMARK  109  A    between atoms: _256  and  _257
REMARK  110  A    between atoms: _257  and  _258
REMARK  111  A    between atoms: _260  and  _262
REMARK  112  A    between atoms: _262  and  _263
REMARK  113  A    between atoms: _266  and  _268
REMARK  114  A    between atoms: _268  and  _269
REMARK  115  A    between atoms: _272  and  _274
REMARK  116  A    between atoms: _274  and  _275
REMARK  117  A    between atoms: _274  and  _277
REMARK  118  A    between atoms: _277  and  _278
REMARK  119  A    between atoms: _281  and  _283
REMARK  120  A    between atoms: _283  and  _284
REMARK  121  A    between atoms: _287  and  _289
REMARK  122  A    between atoms: _289  and  _290
REMARK  123  A    between atoms: _293  and  _295
REMARK  124  A    between atoms: _295  and  _296
REMARK  125  A    between atoms: _298  and  _300
REMARK  126  A    between atoms: _300  and  _301
REMARK  127  A    between atoms: _300  and  _303
REMARK  128  A    between atoms: _303  and  _304
REMARK  129  A    between atoms: _309  and  _311
REMARK  130  A    between atoms: _311  and  _312
REMARK  131  A    between atoms: _311  and  _314
REMARK  132  A    between atoms: _314  and  _315
REMARK  133  A    between atoms: _315  and  _316
REMARK  134  A    between atoms: _319  and  _321
REMARK  135  A    between atoms: _321  and  _322
REMARK  136  A    between atoms: _321  and  _324
REMARK  137  A    between atoms: _324  and  _325
REMARK  138  A    between atoms: _328  and  _330
REMARK  139  A    between atoms: _330  and  _331
REMARK  140  A    between atoms: _330  and  _333
REMARK  141  A    between atoms: _333  and  _334
REMARK  142  A    between atoms: _334  and  _335
REMARK  143  A    between atoms: _335  and  _336
REMARK  144  A    between atoms: _345  and  _347
REMARK  145  A    between atoms: _347  and  _348
REMARK  146  A    between atoms: _351  and  _352
REMARK  147  A    between atoms: _357  and  _359
REMARK  148  A    between atoms: _359  and  _360
REMARK  149  A    between atoms: _359  and  _362
REMARK  150  A    between atoms: _362  and  _363
REMARK  151  A    between atoms: _363  and  _364
REMARK  152  A    between atoms: _366  and  _368
REMARK  153  A    between atoms: _368  and  _369
REMARK  154  A    between atoms: _368  and  _371
REMARK  155  A    between atoms: _371  and  _372
REMARK  156  A    between atoms: _372  and  _373
REMARK  157  A    between atoms: _375  and  _377
REMARK  158  A    between atoms: _377  and  _378
REMARK  159  A    between atoms: _377  and  _380
REMARK  160  A    between atoms: _380  and  _381
REMARK  161  A    between atoms: _386  and  _388
REMARK  162  A    between atoms: _388  and  _389
REMARK  163  A    between atoms: _388  and  _391
REMARK  164  A    between atoms: _391  and  _392
REMARK  165  A    between atoms: _395  and  _397
REMARK  166  A    between atoms: _397  and  _398
REMARK  167  A    between atoms: _397  and  _400
REMARK  168  A    between atoms: _400  and  _401
REMARK  169  A    between atoms: _403  and  _405
REMARK  170  A    between atoms: _405  and  _406
REMARK  171  A    between atoms: _405  and  _408
REMARK  172  A    between atoms: _408  and  _409
REMARK  173  A    between atoms: _409  and  _410
REMARK  174  A    between atoms: _410  and  _411
REMARK  175  A    between atoms: _411  and  _412
REMARK  176  A    between atoms: _416  and  _418
REMARK  177  A    between atoms: _418  and  _419
REMARK  178  A    between atoms: _418  and  _421
REMARK  179  A    between atoms: _421  and  _422
REMARK  180  A    between atoms: _425  and  _427
REMARK  181  A    between atoms: _427  and  _428
REMARK  182  A    between atoms: _427  and  _430
REMARK  183  A    between atoms: _430  and  _431
REMARK  184  A    between atoms: _431  and  _432
REMARK  185  A    between atoms: _435  and  _437
REMARK  186  A    between atoms: _437  and  _438
REMARK  187  A    between atoms: _441  and  _443
REMARK  188  A    between atoms: _443  and  _444
REMARK  189  A    between atoms: _443  and  _446
REMARK  190  A    between atoms: _449  and  _451
REMARK  191  A    between atoms: _451  and  _452
REMARK  192  A    between atoms: _451  and  _454
REMARK  193  A    between atoms: _454  and  _455
REMARK  194  A    between atoms: _457  and  _459
REMARK  195  A    between atoms: _459  and  _460
REMARK  196  A    between atoms: _462  and  _464
REMARK  197  A    between atoms: _464  and  _465
REMARK  198  A    between atoms: _464  and  _467
REMARK  199  A    between atoms: _467  and  _468
REMARK  200  A    between atoms: _473  and  _475
REMARK  201  A    between atoms: _475  and  _476
REMARK  202  A    between atoms: _475  and  _478
REMARK  203  A    between atoms: _478  and  _479
REMARK  204  A    between atoms: _484  and  _485
REMARK  205  A    between atoms: _487  and  _489
REMARK  206  A    between atoms: _489  and  _490
REMARK  207  A    between atoms: _489  and  _492
REMARK  208  A    between atoms: _494  and  _496
REMARK  209  A    between atoms: _496  and  _497
REMARK  210  A    between atoms: _496  and  _499
REMARK  211  A    between atoms: _499  and  _500
REMARK  212  A    between atoms: _503  and  _505
REMARK  213  A    between atoms: _505  and  _506
REMARK  214  A    between atoms: _505  and  _508
REMARK  215  A    between atoms: _508  and  _509
REMARK  216  A    between atoms: _512  and  _514
REMARK  217  A    between atoms: _514  and  _515
REMARK  218  A    between atoms: _514  and  _517
REMARK  219  A    between atoms: _517  and  _518
REMARK  220  A    between atoms: _518  and  _519
REMARK  221  A    between atoms: _519  and  _520
REMARK  222  A    between atoms: _520  and  _521
REMARK  223  A    between atoms: _525  and  _527
REMARK  224  A    between atoms: _527  and  _528
REMARK  225  A    between atoms: _527  and  _530
REMARK  226  A    between atoms: _530  and  _531
REMARK  227  A    between atoms: _531  and  _532
REMARK  228  A    between atoms: _532  and  _533
REMARK  229  A    between atoms: _533  and  _534
REMARK  230  A    between atoms: _538  and  _540
REMARK  231  A    between atoms: _540  and  _541
REMARK  232  A    between atoms: _540  and  _543
REMARK  233  A    between atoms: _543  and  _544
REMARK  234  A    between atoms: _544  and  _545
REMARK  235  A    between atoms: _545  and  _546
REMARK  236  A    between atoms: _555  and  _557
REMARK  237  A    between atoms: _557  and  _558
REMARK  238  A    between atoms: _557  and  _560
REMARK  239  A    between atoms: _560  and  _561
REMARK  240  A    between atoms: _564  and  _566
REMARK  241  A    between atoms: _566  and  _567
REMARK  242  A    between atoms: _570  and  _572
REMARK  243  A    between atoms: _572  and  _573
REMARK  244  A    between atoms: _572  and  _575
REMARK  245  A    between atoms: _575  and  _576
REMARK  246  A    between atoms: _576  and  _577
REMARK                            x       y       z     vdW  Elec       q    Type
REMARK                         _______ _______ _______ _____ _____    ______ ____
ROOT
ATOM      1  C   MET A   6      -8.509  -7.504   4.701  0.00  0.00    +0.241 C 
ATOM      2  O   MET A   6      -9.423  -7.293   5.491  0.00  0.00    -0.273 OA
ATOM      3  N   ALA A   7      -8.717  -7.816   3.427  0.00  0.00    -0.297 N 
ATOM      4  H   ALA A   7      -7.901  -7.936   2.794  0.00  0.00    +0.150 HD
ENDROOT
BRANCH   3   5
ATOM      5  CA  ALA A   7     -10.062  -7.994   2.896  0.00  0.00    +0.149 C 
ATOM      6  CB  ALA A   7     -10.018  -8.255   1.401  0.00  0.00    +0.031 C 
BRANCH   5   7
ATOM      7  C   ALA A   7     -10.766  -9.127   3.622  0.00  0.00    +0.241 C 
ATOM      8  O   ALA A   7     -11.915  -8.981   4.032  0.00  0.00    -0.273 OA
ATOM      9  N   ALA A   8     -10.060 -10.239   3.806  0.00  0.00    -0.297 N 
ATOM     10  H   ALA A   8      -9.077 -10.268   3.468  0.00  0.00    +0.150 HD
BRANCH   9  11
ATOM     11  CA  ALA A   8     -10.611 -11.420   4.464  0.00  0.00    +0.149 C 
ATOM     12  CB  ALA A   8      -9.676 -12.597   4.289  0.00  0.00    +0.031 C 
BRANCH  11  13
ATOM     13  C   ALA A   8     -10.892 -11.189   5.948  0.00  0.00    +0.241 C 
ATOM     14  N   LEU A   9     -10.097 -10.339   6.592  0.00  0.00    -0.297 N 
ATOM     15  H   LEU A   9      -9.302  -9.904   6.081  0.00  0.00    +0.150 HD
ATOM     16  O   ALA A   8     -11.807 -11.783   6.504  0.00  0.00    -0.273 OA
BRANCH  14  17
ATOM     17  CA  LEU A   9     -10.310 -10.000   7.997  0.00  0.00    +0.149 C 
BRANCH  17  18
ATOM     18  C   LEU A   9     -11.527  -9.087   8.126  0.00  0.00    +0.241 C 
ATOM     19  O   LEU A   9     -12.283  -9.190   9.096  0.00  0.00    -0.273 OA
ATOM     20  N   ALA A  10     -11.717  -8.218   7.132  0.00  0.00    -0.297 N 
ATOM     21  H   ALA A  10     -11.060  -8.232   6.326  0.00  0.00    +0.150 HD
BRANCH  20  22
ATOM     22  CA  ALA A  10     -12.815  -7.243   7.127  0.00  0.00    +0.149 C 
ATOM     23  CB  ALA A  10     -12.577  -6.175   6.064  0.00  0.00    +0.031 C 
BRANCH  22  24
ATOM     24  C   ALA A  10     -14.177  -7.907   6.913  0.00  0.00    +0.241 C 
ATOM     25  O   ALA A  10     -15.157  -7.562   7.578  0.00  0.00    -0.273 OA
ATOM     26  N   ALA A  11     -14.223  -8.863   5.987  0.00  0.00    -0.297 N 
ATOM     27  H   ALA A  11     -13.353  -9.103   5.470  0.00  0.00    +0.150 HD
BRANCH  26  28
ATOM     28  CA  ALA A  11     -15.454  -9.588   5.671  0.00  0.00    +0.149 C 
ATOM     29  CB  ALA A  11     -15.363 -10.228   4.290  0.00  0.00    +0.031 C 
BRANCH  28  30
ATOM     30  C   ALA A  11     -15.753 -10.642   6.734  0.00  0.00    +0.241 C 
ATOM     31  N   GLY A  12     -14.716 -11.076   7.453  0.00  0.00    -0.295 N 
ATOM     32  H   GLY A  12     -13.758 -10.791   7.167  0.00  0.00    +0.150 HD
ATOM     33  O   ALA A  11     -16.903 -11.055   6.886  0.00  0.00    -0.273 OA
BRANCH  31  34
ATOM     34  CA  GLY A  12     -14.868 -11.929   8.618  0.00  0.00    +0.176 C 
BRANCH  34  35
ATOM     35  C   GLY A  12     -15.509 -13.272   8.328  0.00  0.00    +0.243 C 
ATOM     36  O   GLY A  12     -16.710 -13.450   8.551  0.00  0.00    -0.273 OA
ATOM     37  N   HIS A  13     -14.697 -14.208   7.835  0.00  0.00    -0.298 N 
ATOM     38  H   HIS A  13     -13.703 -13.951   7.671  0.00  0.00    +0.150 HD
BRANCH  37  39
ATOM     39  CA  HIS A  13     -15.115 -15.582   7.507  0.00  0.00    +0.143 C 
BRANCH  39  40
ATOM     40  C   HIS A  13     -16.109 -15.645   6.338  0.00  0.00    +0.227 C 
ATOM     41  O   HIS A  13     -16.661 -14.653   5.855  0.00  0.00    -0.286 OA
ENDBRANCH  39  40
BRANCH  39  42
ATOM     42  CB  HIS A  13     -15.690 -16.310   8.743  0.00  0.00    +0.075 C 
BRANCH  42  43
ATOM     43  CG  HIS A  13     -14.728 -17.252   9.405  0.00  0.00    +0.082 A 
ATOM     44  ND1 HIS A  13     -15.141 -18.256  10.256  0.00  0.00    -0.227 NA
ATOM     45  CE1 HIS A  13     -14.088 -18.925  10.690  0.00  0.00    +0.199 A 
ATOM     46  NE2 HIS A  13     -13.005 -18.389  10.156  0.00  0.00    -0.221 NA
ATOM     47  CD2 HIS A  13     -13.377 -17.342   9.348  0.00  0.00    +0.115 A 
ENDBRANCH  42  43
ENDBRANCH  39  42
ENDBRANCH  37  39
ENDBRANCH  34  35
ENDBRANCH  31  34
ENDBRANCH  28  30
ENDBRANCH  26  28
ENDBRANCH  22  24
ENDBRANCH  20  22
ENDBRANCH  17  18
BRANCH  17  48
ATOM     48  CB  LEU A   9      -9.063  -9.332   8.605  0.00  0.00    +0.029 C 
BRANCH  48  49
ATOM     49  CG  LEU A   9      -7.910 -10.273   8.975  0.00  0.00    +0.002 C 
ATOM     50  CD2 LEU A   9      -8.287 -11.213  10.121  0.00  0.00    +0.000 C 
ATOM     51  CD1 LEU A   9      -6.652  -9.498   9.331  0.00  0.00    +0.000 C 
ENDBRANCH  48  49
ENDBRANCH  17  48
ENDBRANCH  14  17
ENDBRANCH  11  13
ENDBRANCH   9  11
ENDBRANCH   5   7
ENDBRANCH   3   5
BRANCH   1  52
ATOM     52  CA  MET A   6      -7.051  -7.421   5.158  0.00  0.00    +0.149 C 
BRANCH  52  55
ATOM     53  C   LEU A   5      -6.470  -9.755   4.798  0.00  0.00    +0.241 C 
ATOM     54  O   LEU A   5      -7.345 -10.140   5.570  0.00  0.00    -0.273 OA
ATOM     55  N   MET A   6      -6.251  -8.472   4.542  0.00  0.00    -0.297 N 
ATOM     56  H   MET A   6      -5.489  -8.209   3.885  0.00  0.00    +0.150 HD
BRANCH  53  57
ATOM     57  CA  LEU A   5      -5.555 -10.759   4.084  0.00  0.00    +0.149 C 
BRANCH  57  59
ATOM     58  C   SER A   4      -6.356 -10.349   1.838  0.00  0.00    +0.243 C 
ATOM     59  N   LEU A   5      -5.332 -10.376   2.686  0.00  0.00    -0.297 N 
ATOM     60  H   LEU A   5      -4.377 -10.126   2.359  0.00  0.00    +0.150 HD
ATOM     61  O   SER A   4      -7.492 -10.659   2.182  0.00  0.00    -0.273 OA
BRANCH  58  62
ATOM     62  CA  SER A   4      -6.080  -9.939   0.394  0.00  0.00    +0.178 C 
BRANCH  62  65
ATOM     63  C   LEU A   3      -5.711  -7.534   0.535  0.00  0.00    +0.241 C 
ATOM     64  O   LEU A   3      -6.828  -7.322   0.989  0.00  0.00    -0.273 OA
ATOM     65  N   SER A   4      -5.244  -8.754   0.286  0.00  0.00    -0.295 N 
ATOM     66  H   SER A   4      -4.249  -8.864   0.005  0.00  0.00    +0.150 HD
BRANCH  63  67
ATOM     67  CA  LEU A   3      -4.772  -6.378   0.233  0.00  0.00    +0.149 C 
BRANCH  67  70
ATOM     68  C   GLU A   2      -3.300  -6.938   2.114  0.00  0.00    +0.241 C 
ATOM     69  O   GLU A   2      -4.230  -7.127   2.881  0.00  0.00    -0.273 OA
ATOM     70  N   LEU A   3      -3.459  -6.584   0.844  0.00  0.00    -0.297 N 
ATOM     71  H   LEU A   3      -2.611  -6.447   0.257  0.00  0.00    +0.150 HD
BRANCH  68  72
ATOM     72  CA  GLU A   2      -1.859  -7.098   2.582  0.00  0.00    +0.149 C 
BRANCH  72  75
ATOM     73  C   GLY A   1      -1.476  -9.253   1.484  0.00  0.00    +0.240 C 
ATOM     74  O   GLY A   1      -2.329  -9.829   2.161  0.00  0.00    -0.274 OA
ATOM     75  N   GLU A   2      -1.141  -7.980   1.664  0.00  0.00    -0.297 N 
ATOM     76  H   GLU A   2      -0.335  -7.596   1.130  0.00  0.00    +0.150 HD
BRANCH  73  77
ATOM     77  CA  GLY A   1      -0.723 -10.005   0.397  0.00  0.00    +0.169 C 
BRANCH  77  78
ATOM     78  N   GLY A   1      -0.428  -9.208  -0.782  0.00  0.00    -0.236 NA
ATOM     79  H   GLY A   1       0.567  -9.017  -1.016  0.00  0.00    +0.142 HD
ENDBRANCH  77  78
ENDBRANCH  73  77
ENDBRANCH  72  75
BRANCH  72  80
ATOM     80  CB  GLU A   2      -1.212  -5.713   2.626  0.00  0.00    +0.041 C 
BRANCH  80  81
ATOM     81  CG  GLU A   2       0.190  -5.680   3.207  0.00  0.00    +0.116 C 
BRANCH  81  82
ATOM     82  CD  GLU A   2       0.200  -6.059   4.662  0.00  0.00    +0.365 C 
ATOM     83  OE2 GLU A   2      -0.042  -5.173   5.506  0.00  0.00    -0.246 OA
ATOM     84  OE1 GLU A   2       0.417  -7.243   4.950  0.00  0.00    -0.246 OA
ENDBRANCH  81  82
ENDBRANCH  80  81
ENDBRANCH  72  80
ENDBRANCH  68  72
ENDBRANCH  67  70
BRANCH  67  85
ATOM     85  CB  LEU A   3      -4.641  -6.220  -1.291  0.00  0.00    +0.029 C 
BRANCH  85  86
ATOM     86  CG  LEU A   3      -5.403  -5.106  -2.009  0.00  0.00    +0.002 C 
ATOM     87  CD2 LEU A   3      -6.776  -4.823  -1.405  0.00  0.00    +0.000 C 
ATOM     88  CD1 LEU A   3      -5.537  -5.467  -3.480  0.00  0.00    +0.000 C 
ENDBRANCH  85  86
ENDBRANCH  67  85
ENDBRANCH  63  67
ENDBRANCH  62  65
BRANCH  62  89
ATOM     89  CB  SER A   4      -5.454 -11.109  -0.375  0.00  0.00    +0.166 C 
BRANCH  89  90
ATOM     90  OG  SER A   4      -6.349 -12.207  -0.458  0.00  0.00    -0.380 OA
ATOM     91  H   SER A   4      -5.919 -12.945  -0.958  0.00  0.00    +0.211 HD
ENDBRANCH  89  90
ENDBRANCH  62  89
ENDBRANCH  58  62
ENDBRANCH  57  59
BRANCH  57  92
ATOM     92  CB  LEU A   5      -4.240 -10.903   4.860  0.00  0.00    +0.029 C 
BRANCH  92  93
ATOM     93  CG  LEU A   5      -4.413 -11.255   6.349  0.00  0.00    +0.002 C 
ATOM     94  CD2 LEU A   5      -3.072 -11.386   7.066  0.00  0.00    +0.000 C 
ATOM     95  CD1 LEU A   5      -5.219 -12.519   6.504  0.00  0.00    +0.000 C 
ENDBRANCH  92  93
ENDBRANCH  57  92
ENDBRANCH  53  57
ENDBRANCH  52  55
BRANCH  52  96
ATOM     96  CB  MET A   6      -6.471  -6.044   4.831  0.00  0.00    +0.041 C 
BRANCH  96  97
ATOM     97  CG  MET A   6      -5.115  -5.776   5.484  0.00  0.00    +0.060 C 
BRANCH  97  98
ATOM     98  SD  MET A   6      -5.191  -5.784   7.262  0.00  0.00    -0.139 S 
ATOM     99  CE  MET A   6      -6.212  -4.391   7.532  0.00  0.00    +0.069 C 
ENDBRANCH  97  98
ENDBRANCH  96  97
ENDBRANCH  52  96
ENDBRANCH   1  52
TORSDOF 42
REMARK  Name = ../refined-set-2016/3cd7/3cd7_pocket.pdb
REMARK  246 active torsions:
REMARK  status: ('A' for Active; 'I' for Inactive)
REMARK    1  A    between atoms: _1  and  _3
REMARK    2  A    between atoms: _3  and  _4
REMARK    3  A    between atoms: _3  and  _6
REMARK    4  A    between atoms: _6  and  _7
REMARK    5  A    between atoms: _7  and  _8
REMARK    6  A    between atoms: _11  and  _13
REMARK    7  A    between atoms: _13  and  _14
REMARK    8  A    between atoms: _16  and  _18
REMARK    9  A    between atoms: _18  and  _19
REMARK   10  A    between atoms: _18  and  _21
REMARK   11  A    between atoms: _23  and  _25
REMARK   12  A    between atoms: _25  and  _26
REMARK   13  A    between atoms: _25  and  _28
REMARK   14  A    between atoms: _28  and  _29
REMARK   15  A    between atoms: _32  and  _34
REMARK   16  A    between atoms: _34  and  _35
REMARK   17  A    between atoms: _34  and  _37
REMARK   18  A    between atoms: _40  and  _42
REMARK   19  A    between atoms: _42  and  _43
REMARK   20  A    between atoms: _46  and  _48
REMARK   21  A    between atoms: _48  and  _49
REMARK   22  A    between atoms: _48  and  _51
REMARK   23  A    between atoms: _51  and  _52
REMARK   24  A    between atoms: _54  and  _56
REMARK   25  A    between atoms: _56  and  _57
REMARK   26  A    between atoms: _56  and  _59
REMARK   27  A    between atoms: _59  and  _60
REMARK   28  A    between atoms: _63  and  _65
REMARK   29  A    between atoms: _65  and  _66
REMARK   30  A    between atoms: _65  and  _68
REMARK   31  A    between atoms: _68  and  _69
REMARK   32  A    between atoms: _74  and  _76
REMARK   33  A    between atoms: _76  and  _77
REMARK   34  A    between atoms: _76  and  _79
REMARK   35  A    between atoms: _79  and  _80
REMARK   36  A    between atoms: _80  and  _81
REMARK   37  A    between atoms: _81  and  _82
REMARK   38  A    between atoms: _91  and  _93
REMARK   39  A    between atoms: _93  and  _94
REMARK   40  A    between atoms: _96  and  _98
REMARK   41  A    between atoms: _98  and  _99
REMARK   42  A    between atoms: _98  and  _101
REMARK   43  A    between atoms: _104  and  _106
REMARK   44  A    between atoms: _106  and  _107
REMARK   45  A    between atoms: _106  and  _109
REMARK   46  A    between atoms: _109  and  _110
REMARK   47  A    between atoms: _113  and  _115
REMARK   48  A    between atoms: _115  and  _116
REMARK   49  A    between atoms: _115  and  _118
REMARK   50  A    between atoms: _118  and  _119
REMARK   51  A    between atoms: _119  and  _120
REMARK   52  A    between atoms: _120  and  _121
REMARK   53  A    between atoms: _121  and  _122
REMARK   54  A    between atoms: _126  and  _128
REMARK   55  A    between atoms: _128  and  _129
REMARK   56  A    between atoms: _128  and  _131
REMARK   57  A    between atoms: _131  and  _132
REMARK   58  A    between atoms: _132  and  _133
REMARK   59  A    between atoms: _133  and  _134
REMARK   60  A    between atoms: _134  and  _135
REMARK   61  A    between atoms: _139  and  _141
REMARK   62  A    between atoms: _141  and  _142
REMARK   63  A    between atoms: _141  and  _144
REMARK   64  A    between atoms: _144  and  _145
REMARK   65  A    between atoms: _150  and  _152
REMARK   66  A    between atoms: _152  and  _153
REMARK   67  A    between atoms: _152  and  _155
REMARK   68  A    between atoms: _155  and  _156
REMARK   69  A    between atoms: _161  and  _163
REMARK   70  A    between atoms: _163  and  _164
REMARK   71  A    between atoms: _167  and  _169
REMARK   72  A    between atoms: _169  and  _170
REMARK   73  A    between atoms: _169  and  _172
REMARK   74  A    between atoms: _172  and  _173
REMARK   75  A    between atoms: _178  and  _180
REMARK   76  A    between atoms: _180  and  _181
REMARK   77  A    between atoms: _184  and  _186
REMARK   78  A    between atoms: _186  and  _187
REMARK   79  A    between atoms: _190  and  _192
REMARK   80  A    between atoms: _192  and  _193
REMARK   81  A    between atoms: _192  and  _195
REMARK   82  A    between atoms: _195  and  _196
REMARK   83  A    between atoms: _201  and  _203
REMARK   84  A    between atoms: _203  and  _204
REMARK   85  A    between atoms: _203  and  _206
REMARK   86  A    between atoms: _206  and  _207
REMARK   87  A    between atoms: _210  and  _212
REMARK   88  A    between atoms: _212  and  _213
REMARK   89  A    between atoms: _215  and  _217
REMARK   90  A    between atoms: _217  and  _218
REMARK   91  A    between atoms: _217  and  _220
REMARK   92  A    between atoms: _220  and  _221
REMARK   93  A    between atoms: _221  and  _222
REMARK   94  A    between atoms: _225  and  _227
REMARK   95  A    between atoms: _227  and  _228
REMARK   96  A    between atoms: _227  and  _230
REMARK   97  A    between atoms: _230  and  _231
REMARK   98  A    between atoms: _234  and  _236
REMARK   99  A    between atoms: _236  and  _237
REMARK  100  A    between atoms: _236  and  _239
REMARK  101  A    between atoms: _239  and  _240
REMARK  102  A    between atoms: _242  and  _244
REMARK  103  A    between atoms: _244  and  _245
REMARK  104  A    between atoms: _244  and  _247
REMARK  105  A    between atoms: _247  and  _248
REMARK  106  A    between atoms: _251  and  _253
REMARK  107  A    between atoms: _253  and  _254
REMARK  108  A    between atoms: _253  and  _256
REMARK  109  A    between atoms: _256  and  _257
REMARK  110  A    between atoms: _257  and  _258
REMARK  111  A    between atoms: _260  and  _262
REMARK  112  A    between atoms: _262  and  _263
REMARK  113  A    between atoms: _266  and  _268
REMARK  114  A    between atoms: _268  and  _269
REMARK  115  A    between atoms: _272  and  _274
REMARK  116  A    between atoms: _274  and  _275
REMARK  117  A    between atoms: _274  and  _277
REMARK  118  A    between atoms: _277  and  _278
REMARK  119  A    between atoms: _281  and  _283
REMARK  120  A    between atoms: _283  and  _284
REMARK  121  A    between atoms: _287  and  _289
REMARK  122  A    between atoms: _289  and  _290
REMARK  123  A    between atoms: _293  and  _295
REMARK  124  A    between atoms: _295  and  _296
REMARK  125  A    between atoms: _298  and  _300
REMARK  126  A    between atoms: _300  and  _301
REMARK  127  A    between atoms: _300  and  _303
REMARK  128  A    between atoms: _303  and  _304
REMARK  129  A    between atoms: _309  and  _311
REMARK  130  A    between atoms: _311  and  _312
REMARK  131  A    between atoms: _311  and  _314
REMARK  132  A    between atoms: _314  and  _315
REMARK  133  A    between atoms: _315  and  _316
REMARK  134  A    between atoms: _319  and  _321
REMARK  135  A    between atoms: _321  and  _322
REMARK  136  A    between atoms: _321  and  _324
REMARK  137  A    between atoms: _324  and  _325
REMARK  138  A    between atoms: _328  and  _330
REMARK  139  A    between atoms: _330  and  _331
REMARK  140  A    between atoms: _330  and  _333
REMARK  141  A    between atoms: _333  and  _334
REMARK  142  A    between atoms: _334  and  _335
REMARK  143  A    between atoms: _335  and  _336
REMARK  144  A    between atoms: _345  and  _347
REMARK  145  A    between atoms: _347  and  _348
REMARK  146  A    between atoms: _351  and  _352
REMARK  147  A    between atoms: _357  and  _359
REMARK  148  A    between atoms: _359  and  _360
REMARK  149  A    between atoms: _359  and  _362
REMARK  150  A    between atoms: _362  and  _363
REMARK  151  A    between atoms: _363  and  _364
REMARK  152  A    between atoms: _366  and  _368
REMARK  153  A    between atoms: _368  and  _369
REMARK  154  A    between atoms: _368  and  _371
REMARK  155  A    between atoms: _371  and  _372
REMARK  156  A    between atoms: _372  and  _373
REMARK  157  A    between atoms: _375  and  _377
REMARK  158  A    between atoms: _377  and  _378
REMARK  159  A    between atoms: _377  and  _380
REMARK  160  A    between atoms: _380  and  _381
REMARK  161  A    between atoms: _386  and  _388
REMARK  162  A    between atoms: _388  and  _389
REMARK  163  A    between atoms: _388  and  _391
REMARK  164  A    between atoms: _391  and  _392
REMARK  165  A    between atoms: _395  and  _397
REMARK  166  A    between atoms: _397  and  _398
REMARK  167  A    between atoms: _397  and  _400
REMARK  168  A    between atoms: _400  and  _401
REMARK  169  A    between atoms: _403  and  _405
REMARK  170  A    between atoms: _405  and  _406
REMARK  171  A    between atoms: _405  and  _408
REMARK  172  A    between atoms: _408  and  _409
REMARK  173  A    between atoms: _409  and  _410
REMARK  174  A    between atoms: _410  and  _411
REMARK  175  A    between atoms: _411  and  _412
REMARK  176  A    between atoms: _416  and  _418
REMARK  177  A    between atoms: _418  and  _419
REMARK  178  A    between atoms: _418  and  _421
REMARK  179  A    between atoms: _421  and  _422
REMARK  180  A    between atoms: _425  and  _427
REMARK  181  A    between atoms: _427  and  _428
REMARK  182  A    between atoms: _427  and  _430
REMARK  183  A    between atoms: _430  and  _431
REMARK  184  A    between atoms: _431  and  _432
REMARK  185  A    between atoms: _435  and  _437
REMARK  186  A    between atoms: _437  and  _438
REMARK  187  A    between atoms: _441  and  _443
REMARK  188  A    between atoms: _443  and  _444
REMARK  189  A    between atoms: _443  and  _446
REMARK  190  A    between atoms: _449  and  _451
REMARK  191  A    between atoms: _451  and  _452
REMARK  192  A    between atoms: _451  and  _454
REMARK  193  A    between atoms: _454  and  _455
REMARK  194  A    between atoms: _457  and  _459
REMARK  195  A    between atoms: _459  and  _460
REMARK  196  A    between atoms: _462  and  _464
REMARK  197  A    between atoms: _464  and  _465
REMARK  198  A    between atoms: _464  and  _467
REMARK  199  A    between atoms: _467  and  _468
REMARK  200  A    between atoms: _473  and  _475
REMARK  201  A    between atoms: _475  and  _476
REMARK  202  A    between atoms: _475  and  _478
REMARK  203  A    between atoms: _478  and  _479
REMARK  204  A    between atoms: _484  and  _485
REMARK  205  A    between atoms: _487  and  _489
REMARK  206  A    between atoms: _489  and  _490
REMARK  207  A    between atoms: _489  and  _492
REMARK  208  A    between atoms: _494  and  _496
REMARK  209  A    between atoms: _496  and  _497
REMARK  210  A    between atoms: _496  and  _499
REMARK  211  A    between atoms: _499  and  _500
REMARK  212  A    between atoms: _503  and  _505
REMARK  213  A    between atoms: _505  and  _506
REMARK  214  A    between atoms: _505  and  _508
REMARK  215  A    between atoms: _508  and  _509
REMARK  216  A    between atoms: _512  and  _514
REMARK  217  A    between atoms: _514  and  _515
REMARK  218  A    between atoms: _514  and  _517
REMARK  219  A    between atoms: _517  and  _518
REMARK  220  A    between atoms: _518  and  _519
REMARK  221  A    between atoms: _519  and  _520
REMARK  222  A    between atoms: _520  and  _521
REMARK  223  A    between atoms: _525  and  _527
REMARK  224  A    between atoms: _527  and  _528
REMARK  225  A    between atoms: _527  and  _530
REMARK  226  A    between atoms: _530  and  _531
REMARK  227  A    between atoms: _531  and  _532
REMARK  228  A    between atoms: _532  and  _533
REMARK  229  A    between atoms: _533  and  _534
REMARK  230  A    between atoms: _538  and  _540
REMARK  231  A    between atoms: _540  and  _541
REMARK  232  A    between atoms: _540  and  _543
REMARK  233  A    between atoms: _543  and  _544
REMARK  234  A    between atoms: _544  and  _545
REMARK  235  A    between atoms: _545  and  _546
REMARK  236  A    between atoms: _555  and  _557
REMARK  237  A    between atoms: _557  and  _558
REMARK  238  A    between atoms: _557  and  _560
REMARK  239  A    between atoms: _560  and  _561
REMARK  240  A    between atoms: _564  and  _566
REMARK  241  A    between atoms: _566  and  _567
REMARK  242  A    between atoms: _570  and  _572
REMARK  243  A    between atoms: _572  and  _573
REMARK  244  A    between atoms: _572  and  _575
REMARK  245  A    between atoms: _575  and  _576
REMARK  246  A    between atoms: _576  and  _577
REMARK                            x       y       z     vdW  Elec       q    Type
REMARK                         _______ _______ _______ _____ _____    ______ ____
ROOT
ATOM      1  CA  GLU A   1      -1.065 -23.705  -3.768  0.00  0.00    +0.134 C 
ENDROOT
BRANCH   1   2
ATOM      2  N   GLU A   1      -0.191 -23.695  -2.590  0.00  0.00    -0.239 NA
ATOM      3  H   GLU A   1       0.333 -22.827  -2.359  0.00  0.00    +0.142 HD
ENDBRANCH   1   2
BRANCH   1   4
ATOM      4  C   GLU A   1      -0.332 -23.182  -5.004  0.00  0.00    +0.224 C 
ATOM      5  O   GLU A   1       0.710 -22.523  -4.892  0.00  0.00    -0.287 OA
ENDBRANCH   1   4
BRANCH   1   6
ATOM      6  CB  GLU A   1      -2.334 -22.882  -3.508  0.00  0.00    +0.037 C 
BRANCH   6   7
ATOM      7  CG  GLU A   1      -3.160 -23.355  -2.310  0.00  0.00    +0.116 C 
BRANCH   7   8
ATOM      8  CD  GLU A   1      -2.642 -22.815  -0.988  0.00  0.00    +0.365 C 
ATOM      9  OE2 GLU A   1      -2.580 -23.586  -0.007  0.00  0.00    -0.246 OA
ATOM     10  OE1 GLU A   1      -2.280 -21.620  -0.929  0.00  0.00    -0.246 OA
ENDBRANCH   7   8
ENDBRANCH   6   7
ENDBRANCH   1   6
TORSDOF 5
REMARK  Name = ../refined-set-2016/3cd7/3cd7_pocket.pdb
REMARK  246 active torsions:
REMARK  status: ('A' for Active; 'I' for Inactive)
REMARK    1  A    between atoms: _1  and  _3
REMARK    2  A    between atoms: _3  and  _4
REMARK    3  A    between atoms: _3  and  _6
REMARK    4  A    between atoms: _6  and  _7
REMARK    5  A    between atoms: _7  and  _8
REMARK    6  A    between atoms: _11  and  _13
REMARK    7  A    between atoms: _13  and  _14
REMARK    8  A    between atoms: _16  and  _18
REMARK    9  A    between atoms: _18  and  _19
REMARK   10  A    between atoms: _18  and  _21
REMARK   11  A    between atoms: _23  and  _25
REMARK   12  A    between atoms: _25  and  _26
REMARK   13  A    between atoms: _25  and  _28
REMARK   14  A    between atoms: _28  and  _29
REMARK   15  A    between atoms: _32  and  _34
REMARK   16  A    between atoms: _34  and  _35
REMARK   17  A    between atoms: _34  and  _37
REMARK   18  A    between atoms: _40  and  _42
REMARK   19  A    between atoms: _42  and  _43
REMARK   20  A    between atoms: _46  and  _48
REMARK   21  A    between atoms: _48  and  _49
REMARK   22  A    between atoms: _48  and  _51
REMARK   23  A    between atoms: _51  and  _52
REMARK   24  A    between atoms: _54  and  _56
REMARK   25  A    between atoms: _56  and  _57
REMARK   26  A    between atoms: _56  and  _59
REMARK   27  A    between atoms: _59  and  _60
REMARK   28  A    between atoms: _63  and  _65
REMARK   29  A    between atoms: _65  and  _66
REMARK   30  A    between atoms: _65  and  _68
REMARK   31  A    between atoms: _68  and  _69
REMARK   32  A    between atoms: _74  and  _76
REMARK   33  A    between atoms: _76  and  _77
REMARK   34  A    between atoms: _76  and  _79
REMARK   35  A    between atoms: _79  and  _80
REMARK   36  A    between atoms: _80  and  _81
REMARK   37  A    between atoms: _81  and  _82
REMARK   38  A    between atoms: _91  and  _93
REMARK   39  A    between atoms: _93  and  _94
REMARK   40  A    between atoms: _96  and  _98
REMARK   41  A    between atoms: _98  and  _99
REMARK   42  A    between atoms: _98  and  _101
REMARK   43  A    between atoms: _104  and  _106
REMARK   44  A    between atoms: _106  and  _107
REMARK   45  A    between atoms: _106  and  _109
REMARK   46  A    between atoms: _109  and  _110
REMARK   47  A    between atoms: _113  and  _115
REMARK   48  A    between atoms: _115  and  _116
REMARK   49  A    between atoms: _115  and  _118
REMARK   50  A    between atoms: _118  and  _119
REMARK   51  A    between atoms: _119  and  _120
REMARK   52  A    between atoms: _120  and  _121
REMARK   53  A    between atoms: _121  and  _122
REMARK   54  A    between atoms: _126  and  _128
REMARK   55  A    between atoms: _128  and  _129
REMARK   56  A    between atoms: _128  and  _131
REMARK   57  A    between atoms: _131  and  _132
REMARK   58  A    between atoms: _132  and  _133
REMARK   59  A    between atoms: _133  and  _134
REMARK   60  A    between atoms: _134  and  _135
REMARK   61  A    between atoms: _139  and  _141
REMARK   62  A    between atoms: _141  and  _142
REMARK   63  A    between atoms: _141  and  _144
REMARK   64  A    between atoms: _144  and  _145
REMARK   65  A    between atoms: _150  and  _152
REMARK   66  A    between atoms: _152  and  _153
REMARK   67  A    between atoms: _152  and  _155
REMARK   68  A    between atoms: _155  and  _156
REMARK   69  A    between atoms: _161  and  _163
REMARK   70  A    between atoms: _163  and  _164
REMARK   71  A    between atoms: _167  and  _169
REMARK   72  A    between atoms: _169  and  _170
REMARK   73  A    between atoms: _169  and  _172
REMARK   74  A    between atoms: _172  and  _173
REMARK   75  A    between atoms: _178  and  _180
REMARK   76  A    between atoms: _180  and  _181
REMARK   77  A    between atoms: _184  and  _186
REMARK   78  A    between atoms: _186  and  _187
REMARK   79  A    between atoms: _190  and  _192
REMARK   80  A    between atoms: _192  and  _193
REMARK   81  A    between atoms: _192  and  _195
REMARK   82  A    between atoms: _195  and  _196
REMARK   83  A    between atoms: _201  and  _203
REMARK   84  A    between atoms: _203  and  _204
REMARK   85  A    between atoms: _203  and  _206
REMARK   86  A    between atoms: _206  and  _207
REMARK   87  A    between atoms: _210  and  _212
REMARK   88  A    between atoms: _212  and  _213
REMARK   89  A    between atoms: _215  and  _217
REMARK   90  A    between atoms: _217  and  _218
REMARK   91  A    between atoms: _217  and  _220
REMARK   92  A    between atoms: _220  and  _221
REMARK   93  A    between atoms: _221  and  _222
REMARK   94  A    between atoms: _225  and  _227
REMARK   95  A    between atoms: _227  and  _228
REMARK   96  A    between atoms: _227  and  _230
REMARK   97  A    between atoms: _230  and  _231
REMARK   98  A    between atoms: _234  and  _236
REMARK   99  A    between atoms: _236  and  _237
REMARK  100  A    between atoms: _236  and  _239
REMARK  101  A    between atoms: _239  and  _240
REMARK  102  A    between atoms: _242  and  _244
REMARK  103  A    between atoms: _244  and  _245
REMARK  104  A    between atoms: _244  and  _247
REMARK  105  A    between atoms: _247  and  _248
REMARK  106  A    between atoms: _251  and  _253
REMARK  107  A    between atoms: _253  and  _254
REMARK  108  A    between atoms: _253  and  _256
REMARK  109  A    between atoms: _256  and  _257
REMARK  110  A    between atoms: _257  and  _258
REMARK  111  A    between atoms: _260  and  _262
REMARK  112  A    between atoms: _262  and  _263
REMARK  113  A    between atoms: _266  and  _268
REMARK  114  A    between atoms: _268  and  _269
REMARK  115  A    between atoms: _272  and  _274
REMARK  116  A    between atoms: _274  and  _275
REMARK  117  A    between atoms: _274  and  _277
REMARK  118  A    between atoms: _277  and  _278
REMARK  119  A    between atoms: _281  and  _283
REMARK  120  A    between atoms: _283  and  _284
REMARK  121  A    between atoms: _287  and  _289
REMARK  122  A    between atoms: _289  and  _290
REMARK  123  A    between atoms: _293  and  _295
REMARK  124  A    between atoms: _295  and  _296
REMARK  125  A    between atoms: _298  and  _300
REMARK  126  A    between atoms: _300  and  _301
REMARK  127  A    between atoms: _300  and  _303
REMARK  128  A    between atoms: _303  and  _304
REMARK  129  A    between atoms: _309  and  _311
REMARK  130  A    between atoms: _311  and  _312
REMARK  131  A    between atoms: _311  and  _314
REMARK  132  A    between atoms: _314  and  _315
REMARK  133  A    between atoms: _315  and  _316
REMARK  134  A    between atoms: _319  and  _321
REMARK  135  A    between atoms: _321  and  _322
REMARK  136  A    between atoms: _321  and  _324
REMARK  137  A    between atoms: _324  and  _325
REMARK  138  A    between atoms: _328  and  _330
REMARK  139  A    between atoms: _330  and  _331
REMARK  140  A    between atoms: _330  and  _333
REMARK  141  A    between atoms: _333  and  _334
REMARK  142  A    between atoms: _334  and  _335
REMARK  143  A    between atoms: _335  and  _336
REMARK  144  A    between atoms: _345  and  _347
REMARK  145  A    between atoms: _347  and  _348
REMARK  146  A    between atoms: _351  and  _352
REMARK  147  A    between atoms: _357  and  _359
REMARK  148  A    between atoms: _359  and  _360
REMARK  149  A    between atoms: _359  and  _362
REMARK  150  A    between atoms: _362  and  _363
REMARK  151  A    between atoms: _363  and  _364
REMARK  152  A    between atoms: _366  and  _368
REMARK  153  A    between atoms: _368  and  _369
REMARK  154  A    between atoms: _368  and  _371
REMARK  155  A    between atoms: _371  and  _372
REMARK  156  A    between atoms: _372  and  _373
REMARK  157  A    between atoms: _375  and  _377
REMARK  158  A    between atoms: _377  and  _378
REMARK  159  A    between atoms: _377  and  _380
REMARK  160  A    between atoms: _380  and  _381
REMARK  161  A    between atoms: _386  and  _388
REMARK  162  A    between atoms: _388  and  _389
REMARK  163  A    between atoms: _388  and  _391
REMARK  164  A    between atoms: _391  and  _392
REMARK  165  A    between atoms: _395  and  _397
REMARK  166  A    between atoms: _397  and  _398
REMARK  167  A    between atoms: _397  and  _400
REMARK  168  A    between atoms: _400  and  _401
REMARK  169  A    between atoms: _403  and  _405
REMARK  170  A    between atoms: _405  and  _406
REMARK  171  A    between atoms: _405  and  _408
REMARK  172  A    between atoms: _408  and  _409
REMARK  173  A    between atoms: _409  and  _410
REMARK  174  A    between atoms: _410  and  _411
REMARK  175  A    between atoms: _411  and  _412
REMARK  176  A    between atoms: _416  and  _418
REMARK  177  A    between atoms: _418  and  _419
REMARK  178  A    between atoms: _418  and  _421
REMARK  179  A    between atoms: _421  and  _422
REMARK  180  A    between atoms: _425  and  _427
REMARK  181  A    between atoms: _427  and  _428
REMARK  182  A    between atoms: _427  and  _430
REMARK  183  A    between atoms: _430  and  _431
REMARK  184  A    between atoms: _431  and  _432
REMARK  185  A    between atoms: _435  and  _437
REMARK  186  A    between atoms: _437  and  _438
REMARK  187  A    between atoms: _441  and  _443
REMARK  188  A    between atoms: _443  and  _444
REMARK  189  A    between atoms: _443  and  _446
REMARK  190  A    between atoms: _449  and  _451
REMARK  191  A    between atoms: _451  and  _452
REMARK  192  A    between atoms: _451  and  _454
REMARK  193  A    between atoms: _454  and  _455
REMARK  194  A    between atoms: _457  and  _459
REMARK  195  A    between atoms: _459  and  _460
REMARK  196  A    between atoms: _462  and  _464
REMARK  197  A    between atoms: _464  and  _465
REMARK  198  A    between atoms: _464  and  _467
REMARK  199  A    between atoms: _467  and  _468
REMARK  200  A    between atoms: _473  and  _475
REMARK  201  A    between atoms: _475  and  _476
REMARK  202  A    between atoms: _475  and  _478
REMARK  203  A    between atoms: _478  and  _479
REMARK  204  A    between atoms: _484  and  _485
REMARK  205  A    between atoms: _487  and  _489
REMARK  206  A    between atoms: _489  and  _490
REMARK  207  A    between atoms: _489  and  _492
REMARK  208  A    between atoms: _494  and  _496
REMARK  209  A    between atoms: _496  and  _497
REMARK  210  A    between atoms: _496  and  _499
REMARK  211  A    between atoms: _499  and  _500
REMARK  212  A    between atoms: _503  and  _505
REMARK  213  A    between atoms: _505  and  _506
REMARK  214  A    between atoms: _505  and  _508
REMARK  215  A    between atoms: _508  and  _509
REMARK  216  A    between atoms: _512  and  _514
REMARK  217  A    between atoms: _514  and  _515
REMARK  218  A    between atoms: _514  and  _517
REMARK  219  A    between atoms: _517  and  _518
REMARK  220  A    between atoms: _518  and  _519
REMARK  221  A    between atoms: _519  and  _520
REMARK  222  A    between atoms: _520  and  _521
REMARK  223  A    between atoms: _525  and  _527
REMARK  224  A    between atoms: _527  and  _528
REMARK  225  A    between atoms: _527  and  _530
REMARK  226  A    between atoms: _530  and  _531
REMARK  227  A    between atoms: _531  and  _532
REMARK  228  A    between atoms: _532  and  _533
REMARK  229  A    between atoms: _533  and  _534
REMARK  230  A    between atoms: _538  and  _540
REMARK  231  A    between atoms: _540  and  _541
REMARK  232  A    between atoms: _540  and  _543
REMARK  233  A    between atoms: _543  and  _544
REMARK  234  A    between atoms: _544  and  _545
REMARK  235  A    between atoms: _545  and  _546
REMARK  236  A    between atoms: _555  and  _557
REMARK  237  A    between atoms: _557  and  _558
REMARK  238  A    between atoms: _557  and  _560
REMARK  239  A    between atoms: _560  and  _561
REMARK  240  A    between atoms: _564  and  _566
REMARK  241  A    between atoms: _566  and  _567
REMARK  242  A    between atoms: _570  and  _572
REMARK  243  A    between atoms: _572  and  _573
REMARK  244  A    between atoms: _572  and  _575
REMARK  245  A    between atoms: _575  and  _576
REMARK  246  A    between atoms: _576  and  _577
REMARK                            x       y       z     vdW  Elec       q    Type
REMARK                         _______ _______ _______ _____ _____    ______ ____
ROOT
ATOM      1  CA  ARG A   2      -4.434 -14.232  19.251  0.00  0.00    +0.149 C 
ENDROOT
BRANCH   1   3
ATOM      2  C   THR A   1      -2.537 -15.489  20.186  0.00  0.00    +0.241 C 
ATOM      3  N   ARG A   2      -3.695 -14.854  20.343  0.00  0.00    -0.297 N 
ATOM      4  H   ARG A   2      -4.097 -14.798  21.301  0.00  0.00    +0.150 HD
ATOM      5  O   THR A   1      -2.039 -15.739  19.097  0.00  0.00    -0.274 OA
BRANCH   2   6
ATOM      6  CA  THR A   1      -1.853 -15.902  21.476  0.00  0.00    +0.172 C 
BRANCH   6   7
ATOM      7  N   THR A   1      -0.868 -16.964  21.304  0.00  0.00    -0.236 NA
ATOM      8  H   THR A   1      -0.142 -16.879  20.564  0.00  0.00    +0.142 HD
ENDBRANCH   6   7
BRANCH   6   9
ATOM      9  CB  THR A   1      -1.207 -14.657  22.138  0.00  0.00    +0.135 C 
ATOM     10  CG2 THR A   1      -0.490 -15.023  23.448  0.00  0.00    +0.034 C 
BRANCH   9  11
ATOM     11  OG1 THR A   1      -0.165 -14.140  21.304  0.00  0.00    -0.383 OA
ATOM     12  HG1 THR A   1       0.239 -13.347  21.737  0.00  0.00    +0.210 HD
ENDBRANCH   9  11
ENDBRANCH   6   9
ENDBRANCH   2   6
ENDBRANCH   1   3
BRANCH   1  13
ATOM     13  C   ARG A   2      -5.097 -12.970  19.808  0.00  0.00    +0.241 C 
ATOM     14  O   ARG A   2      -5.733 -13.015  20.853  0.00  0.00    -0.273 OA
ATOM     15  N   GLY A   3      -4.970 -11.856  19.091  0.00  0.00    -0.295 N 
ATOM     16  H   GLY A   3      -4.630 -11.926  18.111  0.00  0.00    +0.150 HD
BRANCH  15  17
ATOM     17  CA  GLY A   3      -5.290 -10.547  19.631  0.00  0.00    +0.176 C 
BRANCH  17  18
ATOM     18  C   GLY A   3      -6.273  -9.755  18.794  0.00  0.00    +0.246 C 
ATOM     19  N   PRO A   4      -7.543 -10.170  18.763  0.00  0.00    -0.273 N 
ATOM     20  CD  PRO A   4      -8.116 -11.336  19.457  0.00  0.00    +0.094 C 
ATOM     21  CG  PRO A   4      -9.576 -11.002  19.500  0.00  0.00    +0.024 C 
ATOM     22  CB  PRO A   4      -9.829 -10.319  18.216  0.00  0.00    +0.030 C 
ATOM     23  CA  PRO A   4      -8.570  -9.467  17.984  0.00  0.00    +0.140 C 
ATOM     24  O   GLY A   3      -5.874  -8.749  18.197  0.00  0.00    -0.273 OA
BRANCH  23  25
ATOM     25  C   PRO A   4      -8.833  -8.032  18.452  0.00  0.00    +0.227 C 
ATOM     26  O   PRO A   4      -8.570  -7.695  19.602  0.00  0.00    -0.286 OA
ENDBRANCH  23  25
ENDBRANCH  17  18
ENDBRANCH  15  17
ENDBRANCH   1  13
BRANCH   1  27
ATOM     27  CB  ARG A   2      -5.481 -15.202  18.702  0.00  0.00    +0.033 C 
BRANCH  27  28
ATOM     28  CG  ARG A   2      -6.387 -14.643  17.625  0.00  0.00    +0.045 C 
BRANCH  28  29
ATOM     29  CD  ARG A   2      -5.960 -15.003  16.219  0.00  0.00    +0.174 C 
BRANCH  29  30
ATOM     30  NE  ARG A   2      -4.854 -14.172  15.752  0.00  0.00    -0.265 N 
ATOM     31  HE  ARG A   2      -4.715 -13.251  16.215  0.00  0.00    +0.259 HD
ATOM     32  CZ  ARG A   2      -4.008 -14.507  14.775  0.00  0.00    +0.342 C 
ATOM     33  NH2 ARG A   2      -3.041 -13.664  14.425  0.00  0.00    -0.292 N 
ATOM     34 HH21 ARG A   2      -2.947 -12.750  14.912  0.00  0.00    +0.255 HD
ATOM     35 HH22 ARG A   2      -2.379 -13.919  13.665  0.00  0.00    +0.255 HD
ATOM     36  NH1 ARG A   2      -4.120 -15.667  14.138  0.00  0.00    -0.292 N 
ATOM     37 HH11 ARG A   2      -4.876 -16.332  14.398  0.00  0.00    +0.255 HD
ATOM     38 HH12 ARG A   2      -3.451 -15.910  13.379  0.00  0.00    +0.255 HD
ENDBRANCH  29  30
ENDBRANCH  28  29
ENDBRANCH  27  28
ENDBRANCH   1  27
TORSDOF 13
REMARK  Name = ../refined-set-2016/3cd7/3cd7_pocket.pdb
REMARK  246 active torsions:
REMARK  status: ('A' for Active; 'I' for Inactive)
REMARK    1  A    between atoms: _1  and  _3
REMARK    2  A    between atoms: _3  and  _4
REMARK    3  A    between atoms: _3  and  _6
REMARK    4  A    between atoms: _6  and  _7
REMARK    5  A    between atoms: _7  and  _8
REMARK    6  A    between atoms: _11  and  _13
REMARK    7  A    between atoms: _13  and  _14
REMARK    8  A    between atoms: _16  and  _18
REMARK    9  A    between atoms: _18  and  _19
REMARK   10  A    between atoms: _18  and  _21
REMARK   11  A    between atoms: _23  and  _25
REMARK   12  A    between atoms: _25  and  _26
REMARK   13  A    between atoms: _25  and  _28
REMARK   14  A    between atoms: _28  and  _29
REMARK   15  A    between atoms: _32  and  _34
REMARK   16  A    between atoms: _34  and  _35
REMARK   17  A    between atoms: _34  and  _37
REMARK   18  A    between atoms: _40  and  _42
REMARK   19  A    between atoms: _42  and  _43
REMARK   20  A    between atoms: _46  and  _48
REMARK   21  A    between atoms: _48  and  _49
REMARK   22  A    between atoms: _48  and  _51
REMARK   23  A    between atoms: _51  and  _52
REMARK   24  A    between atoms: _54  and  _56
REMARK   25  A    between atoms: _56  and  _57
REMARK   26  A    between atoms: _56  and  _59
REMARK   27  A    between atoms: _59  and  _60
REMARK   28  A    between atoms: _63  and  _65
REMARK   29  A    between atoms: _65  and  _66
REMARK   30  A    between atoms: _65  and  _68
REMARK   31  A    between atoms: _68  and  _69
REMARK   32  A    between atoms: _74  and  _76
REMARK   33  A    between atoms: _76  and  _77
REMARK   34  A    between atoms: _76  and  _79
REMARK   35  A    between atoms: _79  and  _80
REMARK   36  A    between atoms: _80  and  _81
REMARK   37  A    between atoms: _81  and  _82
REMARK   38  A    between atoms: _91  and  _93
REMARK   39  A    between atoms: _93  and  _94
REMARK   40  A    between atoms: _96  and  _98
REMARK   41  A    between atoms: _98  and  _99
REMARK   42  A    between atoms: _98  and  _101
REMARK   43  A    between atoms: _104  and  _106
REMARK   44  A    between atoms: _106  and  _107
REMARK   45  A    between atoms: _106  and  _109
REMARK   46  A    between atoms: _109  and  _110
REMARK   47  A    between atoms: _113  and  _115
REMARK   48  A    between atoms: _115  and  _116
REMARK   49  A    between atoms: _115  and  _118
REMARK   50  A    between atoms: _118  and  _119
REMARK   51  A    between atoms: _119  and  _120
REMARK   52  A    between atoms: _120  and  _121
REMARK   53  A    between atoms: _121  and  _122
REMARK   54  A    between atoms: _126  and  _128
REMARK   55  A    between atoms: _128  and  _129
REMARK   56  A    between atoms: _128  and  _131
REMARK   57  A    between atoms: _131  and  _132
REMARK   58  A    between atoms: _132  and  _133
REMARK   59  A    between atoms: _133  and  _134
REMARK   60  A    between atoms: _134  and  _135
REMARK   61  A    between atoms: _139  and  _141
REMARK   62  A    between atoms: _141  and  _142
REMARK   63  A    between atoms: _141  and  _144
REMARK   64  A    between atoms: _144  and  _145
REMARK   65  A    between atoms: _150  and  _152
REMARK   66  A    between atoms: _152  and  _153
REMARK   67  A    between atoms: _152  and  _155
REMARK   68  A    between atoms: _155  and  _156
REMARK   69  A    between atoms: _161  and  _163
REMARK   70  A    between atoms: _163  and  _164
REMARK   71  A    between atoms: _167  and  _169
REMARK   72  A    between atoms: _169  and  _170
REMARK   73  A    between atoms: _169  and  _172
REMARK   74  A    between atoms: _172  and  _173
REMARK   75  A    between atoms: _178  and  _180
REMARK   76  A    between atoms: _180  and  _181
REMARK   77  A    between atoms: _184  and  _186
REMARK   78  A    between atoms: _186  and  _187
REMARK   79  A    between atoms: _190  and  _192
REMARK   80  A    between atoms: _192  and  _193
REMARK   81  A    between atoms: _192  and  _195
REMARK   82  A    between atoms: _195  and  _196
REMARK   83  A    between atoms: _201  and  _203
REMARK   84  A    between atoms: _203  and  _204
REMARK   85  A    between atoms: _203  and  _206
REMARK   86  A    between atoms: _206  and  _207
REMARK   87  A    between atoms: _210  and  _212
REMARK   88  A    between atoms: _212  and  _213
REMARK   89  A    between atoms: _215  and  _217
REMARK   90  A    between atoms: _217  and  _218
REMARK   91  A    between atoms: _217  and  _220
REMARK   92  A    between atoms: _220  and  _221
REMARK   93  A    between atoms: _221  and  _222
REMARK   94  A    between atoms: _225  and  _227
REMARK   95  A    between atoms: _227  and  _228
REMARK   96  A    between atoms: _227  and  _230
REMARK   97  A    between atoms: _230  and  _231
REMARK   98  A    between atoms: _234  and  _236
REMARK   99  A    between atoms: _236  and  _237
REMARK  100  A    between atoms: _236  and  _239
REMARK  101  A    between atoms: _239  and  _240
REMARK  102  A    between atoms: _242  and  _244
REMARK  103  A    between atoms: _244  and  _245
REMARK  104  A    between atoms: _244  and  _247
REMARK  105  A    between atoms: _247  and  _248
REMARK  106  A    between atoms: _251  and  _253
REMARK  107  A    between atoms: _253  and  _254
REMARK  108  A    between atoms: _253  and  _256
REMARK  109  A    between atoms: _256  and  _257
REMARK  110  A    between atoms: _257  and  _258
REMARK  111  A    between atoms: _260  and  _262
REMARK  112  A    between atoms: _262  and  _263
REMARK  113  A    between atoms: _266  and  _268
REMARK  114  A    between atoms: _268  and  _269
REMARK  115  A    between atoms: _272  and  _274
REMARK  116  A    between atoms: _274  and  _275
REMARK  117  A    between atoms: _274  and  _277
REMARK  118  A    between atoms: _277  and  _278
REMARK  119  A    between atoms: _281  and  _283
REMARK  120  A    between atoms: _283  and  _284
REMARK  121  A    between atoms: _287  and  _289
REMARK  122  A    between atoms: _289  and  _290
REMARK  123  A    between atoms: _293  and  _295
REMARK  124  A    between atoms: _295  and  _296
REMARK  125  A    between atoms: _298  and  _300
REMARK  126  A    between atoms: _300  and  _301
REMARK  127  A    between atoms: _300  and  _303
REMARK  128  A    between atoms: _303  and  _304
REMARK  129  A    between atoms: _309  and  _311
REMARK  130  A    between atoms: _311  and  _312
REMARK  131  A    between atoms: _311  and  _314
REMARK  132  A    between atoms: _314  and  _315
REMARK  133  A    between atoms: _315  and  _316
REMARK  134  A    between atoms: _319  and  _321
REMARK  135  A    between atoms: _321  and  _322
REMARK  136  A    between atoms: _321  and  _324
REMARK  137  A    between atoms: _324  and  _325
REMARK  138  A    between atoms: _328  and  _330
REMARK  139  A    between atoms: _330  and  _331
REMARK  140  A    between atoms: _330  and  _333
REMARK  141  A    between atoms: _333  and  _334
REMARK  142  A    between atoms: _334  and  _335
REMARK  143  A    between atoms: _335  and  _336
REMARK  144  A    between atoms: _345  and  _347
REMARK  145  A    between atoms: _347  and  _348
REMARK  146  A    between atoms: _351  and  _352
REMARK  147  A    between atoms: _357  and  _359
REMARK  148  A    between atoms: _359  and  _360
REMARK  149  A    between atoms: _359  and  _362
REMARK  150  A    between atoms: _362  and  _363
REMARK  151  A    between atoms: _363  and  _364
REMARK  152  A    between atoms: _366  and  _368
REMARK  153  A    between atoms: _368  and  _369
REMARK  154  A    between atoms: _368  and  _371
REMARK  155  A    between atoms: _371  and  _372
REMARK  156  A    between atoms: _372  and  _373
REMARK  157  A    between atoms: _375  and  _377
REMARK  158  A    between atoms: _377  and  _378
REMARK  159  A    between atoms: _377  and  _380
REMARK  160  A    between atoms: _380  and  _381
REMARK  161  A    between atoms: _386  and  _388
REMARK  162  A    between atoms: _388  and  _389
REMARK  163  A    between atoms: _388  and  _391
REMARK  164  A    between atoms: _391  and  _392
REMARK  165  A    between atoms: _395  and  _397
REMARK  166  A    between atoms: _397  and  _398
REMARK  167  A    between atoms: _397  and  _400
REMARK  168  A    between atoms: _400  and  _401
REMARK  169  A    between atoms: _403  and  _405
REMARK  170  A    between atoms: _405  and  _406
REMARK  171  A    between atoms: _405  and  _408
REMARK  172  A    between atoms: _408  and  _409
REMARK  173  A    between atoms: _409  and  _410
REMARK  174  A    between atoms: _410  and  _411
REMARK  175  A    between atoms: _411  and  _412
REMARK  176  A    between atoms: _416  and  _418
REMARK  177  A    between atoms: _418  and  _419
REMARK  178  A    between atoms: _418  and  _421
REMARK  179  A    between atoms: _421  and  _422
REMARK  180  A    between atoms: _425  and  _427
REMARK  181  A    between atoms: _427  and  _428
REMARK  182  A    between atoms: _427  and  _430
REMARK  183  A    between atoms: _430  and  _431
REMARK  184  A    between atoms: _431  and  _432
REMARK  185  A    between atoms: _435  and  _437
REMARK  186  A    between atoms: _437  and  _438
REMARK  187  A    between atoms: _441  and  _443
REMARK  188  A    between atoms: _443  and  _444
REMARK  189  A    between atoms: _443  and  _446
REMARK  190  A    between atoms: _449  and  _451
REMARK  191  A    between atoms: _451  and  _452
REMARK  192  A    between atoms: _451  and  _454
REMARK  193  A    between atoms: _454  and  _455
REMARK  194  A    between atoms: _457  and  _459
REMARK  195  A    between atoms: _459  and  _460
REMARK  196  A    between atoms: _462  and  _464
REMARK  197  A    between atoms: _464  and  _465
REMARK  198  A    between atoms: _464  and  _467
REMARK  199  A    between atoms: _467  and  _468
REMARK  200  A    between atoms: _473  and  _475
REMARK  201  A    between atoms: _475  and  _476
REMARK  202  A    between atoms: _475  and  _478
REMARK  203  A    between atoms: _478  and  _479
REMARK  204  A    between atoms: _484  and  _485
REMARK  205  A    between atoms: _487  and  _489
REMARK  206  A    between atoms: _489  and  _490
REMARK  207  A    between atoms: _489  and  _492
REMARK  208  A    between atoms: _494  and  _496
REMARK  209  A    between atoms: _496  and  _497
REMARK  210  A    between atoms: _496  and  _499
REMARK  211  A    between atoms: _499  and  _500
REMARK  212  A    between atoms: _503  and  _505
REMARK  213  A    between atoms: _505  and  _506
REMARK  214  A    between atoms: _505  and  _508
REMARK  215  A    between atoms: _508  and  _509
REMARK  216  A    between atoms: _512  and  _514
REMARK  217  A    between atoms: _514  and  _515
REMARK  218  A    between atoms: _514  and  _517
REMARK  219  A    between atoms: _517  and  _518
REMARK  220  A    between atoms: _518  and  _519
REMARK  221  A    between atoms: _519  and  _520
REMARK  222  A    between atoms: _520  and  _521
REMARK  223  A    between atoms: _525  and  _527
REMARK  224  A    between atoms: _527  and  _528
REMARK  225  A    between atoms: _527  and  _530
REMARK  226  A    between atoms: _530  and  _531
REMARK  227  A    between atoms: _531  and  _532
REMARK  228  A    between atoms: _532  and  _533
REMARK  229  A    between atoms: _533  and  _534
REMARK  230  A    between atoms: _538  and  _540
REMARK  231  A    between atoms: _540  and  _541
REMARK  232  A    between atoms: _540  and  _543
REMARK  233  A    between atoms: _543  and  _544
REMARK  234  A    between atoms: _544  and  _545
REMARK  235  A    between atoms: _545  and  _546
REMARK  236  A    between atoms: _555  and  _557
REMARK  237  A    between atoms: _557  and  _558
REMARK  238  A    between atoms: _557  and  _560
REMARK  239  A    between atoms: _560  and  _561
REMARK  240  A    between atoms: _564  and  _566
REMARK  241  A    between atoms: _566  and  _567
REMARK  242  A    between atoms: _570  and  _572
REMARK  243  A    between atoms: _572  and  _573
REMARK  244  A    between atoms: _572  and  _575
REMARK  245  A    between atoms: _575  and  _576
REMARK  246  A    between atoms: _576  and  _577
REMARK                            x       y       z     vdW  Elec       q    Type
REMARK                         _______ _______ _______ _____ _____    ______ ____
ROOT
ATOM      1  CA  MET A   1       2.277 -24.149  17.299  0.00  0.00    +0.134 C 
ENDROOT
BRANCH   1   2
ATOM      2  N   MET A   1       1.926 -25.554  17.117  0.00  0.00    -0.239 NA
ATOM      3  H   MET A   1       1.948 -25.965  16.162  0.00  0.00    +0.142 HD
ENDBRANCH   1   2
BRANCH   1   4
ATOM      4  C   MET A   1       1.029 -23.393  17.746  0.00  0.00    +0.224 C 
ATOM      5  O   MET A   1       1.116 -22.483  18.567  0.00  0.00    -0.287 OA
ENDBRANCH   1   4
BRANCH   1   6
ATOM      6  CB  MET A   1       2.867 -23.556  16.019  0.00  0.00    +0.037 C 
BRANCH   6   7
ATOM      7  CG  MET A   1       3.434 -22.152  16.203  0.00  0.00    +0.059 C 
BRANCH   7   8
ATOM      8  SD  MET A   1       2.236 -20.915  15.724  0.00  0.00    -0.139 S 
ATOM      9  CE  MET A   1       2.393 -21.040  13.893  0.00  0.00    +0.069 C 
ENDBRANCH   7   8
ENDBRANCH   6   7
ENDBRANCH   1   6
TORSDOF 5
REMARK  Name = ../refined-set-2016/3cd7/3cd7_pocket.pdb
REMARK  246 active torsions:
REMARK  status: ('A' for Active; 'I' for Inactive)
REMARK    1  A    between atoms: _1  and  _3
REMARK    2  A    between atoms: _3  and  _4
REMARK    3  A    between atoms: _3  and  _6
REMARK    4  A    between atoms: _6  and  _7
REMARK    5  A    between atoms: _7  and  _8
REMARK    6  A    between atoms: _11  and  _13
REMARK    7  A    between atoms: _13  and  _14
REMARK    8  A    between atoms: _16  and  _18
REMARK    9  A    between atoms: _18  and  _19
REMARK   10  A    between atoms: _18  and  _21
REMARK   11  A    between atoms: _23  and  _25
REMARK   12  A    between atoms: _25  and  _26
REMARK   13  A    between atoms: _25  and  _28
REMARK   14  A    between atoms: _28  and  _29
REMARK   15  A    between atoms: _32  and  _34
REMARK   16  A    between atoms: _34  and  _35
REMARK   17  A    between atoms: _34  and  _37
REMARK   18  A    between atoms: _40  and  _42
REMARK   19  A    between atoms: _42  and  _43
REMARK   20  A    between atoms: _46  and  _48
REMARK   21  A    between atoms: _48  and  _49
REMARK   22  A    between atoms: _48  and  _51
REMARK   23  A    between atoms: _51  and  _52
REMARK   24  A    between atoms: _54  and  _56
REMARK   25  A    between atoms: _56  and  _57
REMARK   26  A    between atoms: _56  and  _59
REMARK   27  A    between atoms: _59  and  _60
REMARK   28  A    between atoms: _63  and  _65
REMARK   29  A    between atoms: _65  and  _66
REMARK   30  A    between atoms: _65  and  _68
REMARK   31  A    between atoms: _68  and  _69
REMARK   32  A    between atoms: _74  and  _76
REMARK   33  A    between atoms: _76  and  _77
REMARK   34  A    between atoms: _76  and  _79
REMARK   35  A    between atoms: _79  and  _80
REMARK   36  A    between atoms: _80  and  _81
REMARK   37  A    between atoms: _81  and  _82
REMARK   38  A    between atoms: _91  and  _93
REMARK   39  A    between atoms: _93  and  _94
REMARK   40  A    between atoms: _96  and  _98
REMARK   41  A    between atoms: _98  and  _99
REMARK   42  A    between atoms: _98  and  _101
REMARK   43  A    between atoms: _104  and  _106
REMARK   44  A    between atoms: _106  and  _107
REMARK   45  A    between atoms: _106  and  _109
REMARK   46  A    between atoms: _109  and  _110
REMARK   47  A    between atoms: _113  and  _115
REMARK   48  A    between atoms: _115  and  _116
REMARK   49  A    between atoms: _115  and  _118
REMARK   50  A    between atoms: _118  and  _119
REMARK   51  A    between atoms: _119  and  _120
REMARK   52  A    between atoms: _120  and  _121
REMARK   53  A    between atoms: _121  and  _122
REMARK   54  A    between atoms: _126  and  _128
REMARK   55  A    between atoms: _128  and  _129
REMARK   56  A    between atoms: _128  and  _131
REMARK   57  A    between atoms: _131  and  _132
REMARK   58  A    between atoms: _132  and  _133
REMARK   59  A    between atoms: _133  and  _134
REMARK   60  A    between atoms: _134  and  _135
REMARK   61  A    between atoms: _139  and  _141
REMARK   62  A    between atoms: _141  and  _142
REMARK   63  A    between atoms: _141  and  _144
REMARK   64  A    between atoms: _144  and  _145
REMARK   65  A    between atoms: _150  and  _152
REMARK   66  A    between atoms: _152  and  _153
REMARK   67  A    between atoms: _152  and  _155
REMARK   68  A    between atoms: _155  and  _156
REMARK   69  A    between atoms: _161  and  _163
REMARK   70  A    between atoms: _163  and  _164
REMARK   71  A    between atoms: _167  and  _169
REMARK   72  A    between atoms: _169  and  _170
REMARK   73  A    between atoms: _169  and  _172
REMARK   74  A    between atoms: _172  and  _173
REMARK   75  A    between atoms: _178  and  _180
REMARK   76  A    between atoms: _180  and  _181
REMARK   77  A    between atoms: _184  and  _186
REMARK   78  A    between atoms: _186  and  _187
REMARK   79  A    between atoms: _190  and  _192
REMARK   80  A    between atoms: _192  and  _193
REMARK   81  A    between atoms: _192  and  _195
REMARK   82  A    between atoms: _195  and  _196
REMARK   83  A    between atoms: _201  and  _203
REMARK   84  A    between atoms: _203  and  _204
REMARK   85  A    between atoms: _203  and  _206
REMARK   86  A    between atoms: _206  and  _207
REMARK   87  A    between atoms: _210  and  _212
REMARK   88  A    between atoms: _212  and  _213
REMARK   89  A    between atoms: _215  and  _217
REMARK   90  A    between atoms: _217  and  _218
REMARK   91  A    between atoms: _217  and  _220
REMARK   92  A    between atoms: _220  and  _221
REMARK   93  A    between atoms: _221  and  _222
REMARK   94  A    between atoms: _225  and  _227
REMARK   95  A    between atoms: _227  and  _228
REMARK   96  A    between atoms: _227  and  _230
REMARK   97  A    between atoms: _230  and  _231
REMARK   98  A    between atoms: _234  and  _236
REMARK   99  A    between atoms: _236  and  _237
REMARK  100  A    between atoms: _236  and  _239
REMARK  101  A    between atoms: _239  and  _240
REMARK  102  A    between atoms: _242  and  _244
REMARK  103  A    between atoms: _244  and  _245
REMARK  104  A    between atoms: _244  and  _247
REMARK  105  A    between atoms: _247  and  _248
REMARK  106  A    between atoms: _251  and  _253
REMARK  107  A    between atoms: _253  and  _254
REMARK  108  A    between atoms: _253  and  _256
REMARK  109  A    between atoms: _256  and  _257
REMARK  110  A    between atoms: _257  and  _258
REMARK  111  A    between atoms: _260  and  _262
REMARK  112  A    between atoms: _262  and  _263
REMARK  113  A    between atoms: _266  and  _268
REMARK  114  A    between atoms: _268  and  _269
REMARK  115  A    between atoms: _272  and  _274
REMARK  116  A    between atoms: _274  and  _275
REMARK  117  A    between atoms: _274  and  _277
REMARK  118  A    between atoms: _277  and  _278
REMARK  119  A    between atoms: _281  and  _283
REMARK  120  A    between atoms: _283  and  _284
REMARK  121  A    between atoms: _287  and  _289
REMARK  122  A    between atoms: _289  and  _290
REMARK  123  A    between atoms: _293  and  _295
REMARK  124  A    between atoms: _295  and  _296
REMARK  125  A    between atoms: _298  and  _300
REMARK  126  A    between atoms: _300  and  _301
REMARK  127  A    between atoms: _300  and  _303
REMARK  128  A    between atoms: _303  and  _304
REMARK  129  A    between atoms: _309  and  _311
REMARK  130  A    between atoms: _311  and  _312
REMARK  131  A    between atoms: _311  and  _314
REMARK  132  A    between atoms: _314  and  _315
REMARK  133  A    between atoms: _315  and  _316
REMARK  134  A    between atoms: _319  and  _321
REMARK  135  A    between atoms: _321  and  _322
REMARK  136  A    between atoms: _321  and  _324
REMARK  137  A    between atoms: _324  and  _325
REMARK  138  A    between atoms: _328  and  _330
REMARK  139  A    between atoms: _330  and  _331
REMARK  140  A    between atoms: _330  and  _333
REMARK  141  A    between atoms: _333  and  _334
REMARK  142  A    between atoms: _334  and  _335
REMARK  143  A    between atoms: _335  and  _336
REMARK  144  A    between atoms: _345  and  _347
REMARK  145  A    between atoms: _347  and  _348
REMARK  146  A    between atoms: _351  and  _352
REMARK  147  A    between atoms: _357  and  _359
REMARK  148  A    between atoms: _359  and  _360
REMARK  149  A    between atoms: _359  and  _362
REMARK  150  A    between atoms: _362  and  _363
REMARK  151  A    between atoms: _363  and  _364
REMARK  152  A    between atoms: _366  and  _368
REMARK  153  A    between atoms: _368  and  _369
REMARK  154  A    between atoms: _368  and  _371
REMARK  155  A    between atoms: _371  and  _372
REMARK  156  A    between atoms: _372  and  _373
REMARK  157  A    between atoms: _375  and  _377
REMARK  158  A    between atoms: _377  and  _378
REMARK  159  A    between atoms: _377  and  _380
REMARK  160  A    between atoms: _380  and  _381
REMARK  161  A    between atoms: _386  and  _388
REMARK  162  A    between atoms: _388  and  _389
REMARK  163  A    between atoms: _388  and  _391
REMARK  164  A    between atoms: _391  and  _392
REMARK  165  A    between atoms: _395  and  _397
REMARK  166  A    between atoms: _397  and  _398
REMARK  167  A    between atoms: _397  and  _400
REMARK  168  A    between atoms: _400  and  _401
REMARK  169  A    between atoms: _403  and  _405
REMARK  170  A    between atoms: _405  and  _406
REMARK  171  A    between atoms: _405  and  _408
REMARK  172  A    between atoms: _408  and  _409
REMARK  173  A    between atoms: _409  and  _410
REMARK  174  A    between atoms: _410  and  _411
REMARK  175  A    between atoms: _411  and  _412
REMARK  176  A    between atoms: _416  and  _418
REMARK  177  A    between atoms: _418  and  _419
REMARK  178  A    between atoms: _418  and  _421
REMARK  179  A    between atoms: _421  and  _422
REMARK  180  A    between atoms: _425  and  _427
REMARK  181  A    between atoms: _427  and  _428
REMARK  182  A    between atoms: _427  and  _430
REMARK  183  A    between atoms: _430  and  _431
REMARK  184  A    between atoms: _431  and  _432
REMARK  185  A    between atoms: _435  and  _437
REMARK  186  A    between atoms: _437  and  _438
REMARK  187  A    between atoms: _441  and  _443
REMARK  188  A    between atoms: _443  and  _444
REMARK  189  A    between atoms: _443  and  _446
REMARK  190  A    between atoms: _449  and  _451
REMARK  191  A    between atoms: _451  and  _452
REMARK  192  A    between atoms: _451  and  _454
REMARK  193  A    between atoms: _454  and  _455
REMARK  194  A    between atoms: _457  and  _459
REMARK  195  A    between atoms: _459  and  _460
REMARK  196  A    between atoms: _462  and  _464
REMARK  197  A    between atoms: _464  and  _465
REMARK  198  A    between atoms: _464  and  _467
REMARK  199  A    between atoms: _467  and  _468
REMARK  200  A    between atoms: _473  and  _475
REMARK  201  A    between atoms: _475  and  _476
REMARK  202  A    between atoms: _475  and  _478
REMARK  203  A    between atoms: _478  and  _479
REMARK  204  A    between atoms: _484  and  _485
REMARK  205  A    between atoms: _487  and  _489
REMARK  206  A    between atoms: _489  and  _490
REMARK  207  A    between atoms: _489  and  _492
REMARK  208  A    between atoms: _494  and  _496
REMARK  209  A    between atoms: _496  and  _497
REMARK  210  A    between atoms: _496  and  _499
REMARK  211  A    between atoms: _499  and  _500
REMARK  212  A    between atoms: _503  and  _505
REMARK  213  A    between atoms: _505  and  _506
REMARK  214  A    between atoms: _505  and  _508
REMARK  215  A    between atoms: _508  and  _509
REMARK  216  A    between atoms: _512  and  _514
REMARK  217  A    between atoms: _514  and  _515
REMARK  218  A    between atoms: _514  and  _517
REMARK  219  A    between atoms: _517  and  _518
REMARK  220  A    between atoms: _518  and  _519
REMARK  221  A    between atoms: _519  and  _520
REMARK  222  A    between atoms: _520  and  _521
REMARK  223  A    between atoms: _525  and  _527
REMARK  224  A    between atoms: _527  and  _528
REMARK  225  A    between atoms: _527  and  _530
REMARK  226  A    between atoms: _530  and  _531
REMARK  227  A    between atoms: _531  and  _532
REMARK  228  A    between atoms: _532  and  _533
REMARK  229  A    between atoms: _533  and  _534
REMARK  230  A    between atoms: _538  and  _540
REMARK  231  A    between atoms: _540  and  _541
REMARK  232  A    between atoms: _540  and  _543
REMARK  233  A    between atoms: _543  and  _544
REMARK  234  A    between atoms: _544  and  _545
REMARK  235  A    between atoms: _545  and  _546
REMARK  236  A    between atoms: _555  and  _557
REMARK  237  A    between atoms: _557  and  _558
REMARK  238  A    between atoms: _557  and  _560
REMARK  239  A    between atoms: _560  and  _561
REMARK  240  A    between atoms: _564  and  _566
REMARK  241  A    between atoms: _566  and  _567
REMARK  242  A    between atoms: _570  and  _572
REMARK  243  A    between atoms: _572  and  _573
REMARK  244  A    between atoms: _572  and  _575
REMARK  245  A    between atoms: _575  and  _576
REMARK  246  A    between atoms: _576  and  _577
REMARK                            x       y       z     vdW  Elec       q    Type
REMARK                         _______ _______ _______ _____ _____    ______ ____
ROOT
ATOM      1  C   MET A   1      -4.032 -20.908  15.201  0.00  0.00    +0.238 C 
ATOM      2  O   MET A   1      -4.927 -20.197  15.637  0.00  0.00    -0.274 OA
ATOM      3  N   ASN A   2      -4.263 -21.944  14.399  0.00  0.00    -0.298 N 
ATOM      4  H   ASN A   2      -3.463 -22.516  14.060  0.00  0.00    +0.150 HD
ENDROOT
BRANCH   1   5
ATOM      5  CA  MET A   1      -2.576 -20.618  15.559  0.00  0.00    +0.146 C 
BRANCH   5   6
ATOM      6  N   MET A   1      -1.896 -21.816  16.063  0.00  0.00    -0.238 NA
ATOM      7  H   MET A   1      -1.182 -22.290  15.475  0.00  0.00    +0.142 HD
ENDBRANCH   5   6
BRANCH   5   8
ATOM      8  CB  MET A   1      -1.862 -20.030  14.336  0.00  0.00    +0.038 C 
BRANCH   8   9
ATOM      9  CG  MET A   1      -0.441 -19.548  14.604  0.00  0.00    +0.060 C 
BRANCH   9  10
ATOM     10  SD  MET A   1      -0.207 -17.879  15.315  0.00  0.00    -0.139 S 
ATOM     11  CE  MET A   1      -0.979 -16.887  14.092  0.00  0.00    +0.069 C 
ENDBRANCH   9  10
ENDBRANCH   8   9
ENDBRANCH   5   8
ENDBRANCH   1   5
BRANCH   3  12
ATOM     12  CA  ASN A   2      -5.623 -22.293  13.985  0.00  0.00    +0.146 C 
BRANCH  12  13
ATOM     13  C   ASN A   2      -6.480 -22.692  15.186  0.00  0.00    +0.227 C 
ATOM     14  O   ASN A   2      -7.659 -22.358  15.248  0.00  0.00    -0.286 OA
ENDBRANCH  12  13
BRANCH  12  15
ATOM     15  CB  ASN A   2      -5.617 -23.414  12.930  0.00  0.00    +0.112 C 
BRANCH  15  16
ATOM     16  CG  ASN A   2      -5.336 -22.900  11.514  0.00  0.00    +0.222 C 
ATOM     17  OD1 ASN A   2      -5.836 -21.844  11.099  0.00  0.00    -0.275 OA
ATOM     18  ND2 ASN A   2      -4.540 -23.656  10.763  0.00  0.00    -0.329 N 
ATOM     19 HD21 ASN A   2      -4.141 -24.535  11.150  0.00  0.00    +0.145 HD
ATOM     20 HD22 ASN A   2      -4.317 -23.368   9.789  0.00  0.00    +0.145 HD
ENDBRANCH  15  16
ENDBRANCH  12  15
ENDBRANCH   3  12
TORSDOF 9
REMARK  Name = ../refined-set-2016/3cd7/3cd7_pocket.pdb
REMARK  246 active torsions:
REMARK  status: ('A' for Active; 'I' for Inactive)
REMARK    1  A    between atoms: _1  and  _3
REMARK    2  A    between atoms: _3  and  _4
REMARK    3  A    between atoms: _3  and  _6
REMARK    4  A    between atoms: _6  and  _7
REMARK    5  A    between atoms: _7  and  _8
REMARK    6  A    between atoms: _11  and  _13
REMARK    7  A    between atoms: _13  and  _14
REMARK    8  A    between atoms: _16  and  _18
REMARK    9  A    between atoms: _18  and  _19
REMARK   10  A    between atoms: _18  and  _21
REMARK   11  A    between atoms: _23  and  _25
REMARK   12  A    between atoms: _25  and  _26
REMARK   13  A    between atoms: _25  and  _28
REMARK   14  A    between atoms: _28  and  _29
REMARK   15  A    between atoms: _32  and  _34
REMARK   16  A    between atoms: _34  and  _35
REMARK   17  A    between atoms: _34  and  _37
REMARK   18  A    between atoms: _40  and  _42
REMARK   19  A    between atoms: _42  and  _43
REMARK   20  A    between atoms: _46  and  _48
REMARK   21  A    between atoms: _48  and  _49
REMARK   22  A    between atoms: _48  and  _51
REMARK   23  A    between atoms: _51  and  _52
REMARK   24  A    between atoms: _54  and  _56
REMARK   25  A    between atoms: _56  and  _57
REMARK   26  A    between atoms: _56  and  _59
REMARK   27  A    between atoms: _59  and  _60
REMARK   28  A    between atoms: _63  and  _65
REMARK   29  A    between atoms: _65  and  _66
REMARK   30  A    between atoms: _65  and  _68
REMARK   31  A    between atoms: _68  and  _69
REMARK   32  A    between atoms: _74  and  _76
REMARK   33  A    between atoms: _76  and  _77
REMARK   34  A    between atoms: _76  and  _79
REMARK   35  A    between atoms: _79  and  _80
REMARK   36  A    between atoms: _80  and  _81
REMARK   37  A    between atoms: _81  and  _82
REMARK   38  A    between atoms: _91  and  _93
REMARK   39  A    between atoms: _93  and  _94
REMARK   40  A    between atoms: _96  and  _98
REMARK   41  A    between atoms: _98  and  _99
REMARK   42  A    between atoms: _98  and  _101
REMARK   43  A    between atoms: _104  and  _106
REMARK   44  A    between atoms: _106  and  _107
REMARK   45  A    between atoms: _106  and  _109
REMARK   46  A    between atoms: _109  and  _110
REMARK   47  A    between atoms: _113  and  _115
REMARK   48  A    between atoms: _115  and  _116
REMARK   49  A    between atoms: _115  and  _118
REMARK   50  A    between atoms: _118  and  _119
REMARK   51  A    between atoms: _119  and  _120
REMARK   52  A    between atoms: _120  and  _121
REMARK   53  A    between atoms: _121  and  _122
REMARK   54  A    between atoms: _126  and  _128
REMARK   55  A    between atoms: _128  and  _129
REMARK   56  A    between atoms: _128  and  _131
REMARK   57  A    between atoms: _131  and  _132
REMARK   58  A    between atoms: _132  and  _133
REMARK   59  A    between atoms: _133  and  _134
REMARK   60  A    between atoms: _134  and  _135
REMARK   61  A    between atoms: _139  and  _141
REMARK   62  A    between atoms: _141  and  _142
REMARK   63  A    between atoms: _141  and  _144
REMARK   64  A    between atoms: _144  and  _145
REMARK   65  A    between atoms: _150  and  _152
REMARK   66  A    between atoms: _152  and  _153
REMARK   67  A    between atoms: _152  and  _155
REMARK   68  A    between atoms: _155  and  _156
REMARK   69  A    between atoms: _161  and  _163
REMARK   70  A    between atoms: _163  and  _164
REMARK   71  A    between atoms: _167  and  _169
REMARK   72  A    between atoms: _169  and  _170
REMARK   73  A    between atoms: _169  and  _172
REMARK   74  A    between atoms: _172  and  _173
REMARK   75  A    between atoms: _178  and  _180
REMARK   76  A    between atoms: _180  and  _181
REMARK   77  A    between atoms: _184  and  _186
REMARK   78  A    between atoms: _186  and  _187
REMARK   79  A    between atoms: _190  and  _192
REMARK   80  A    between atoms: _192  and  _193
REMARK   81  A    between atoms: _192  and  _195
REMARK   82  A    between atoms: _195  and  _196
REMARK   83  A    between atoms: _201  and  _203
REMARK   84  A    between atoms: _203  and  _204
REMARK   85  A    between atoms: _203  and  _206
REMARK   86  A    between atoms: _206  and  _207
REMARK   87  A    between atoms: _210  and  _212
REMARK   88  A    between atoms: _212  and  _213
REMARK   89  A    between atoms: _215  and  _217
REMARK   90  A    between atoms: _217  and  _218
REMARK   91  A    between atoms: _217  and  _220
REMARK   92  A    between atoms: _220  and  _221
REMARK   93  A    between atoms: _221  and  _222
REMARK   94  A    between atoms: _225  and  _227
REMARK   95  A    between atoms: _227  and  _228
REMARK   96  A    between atoms: _227  and  _230
REMARK   97  A    between atoms: _230  and  _231
REMARK   98  A    between atoms: _234  and  _236
REMARK   99  A    between atoms: _236  and  _237
REMARK  100  A    between atoms: _236  and  _239
REMARK  101  A    between atoms: _239  and  _240
REMARK  102  A    between atoms: _242  and  _244
REMARK  103  A    between atoms: _244  and  _245
REMARK  104  A    between atoms: _244  and  _247
REMARK  105  A    between atoms: _247  and  _248
REMARK  106  A    between atoms: _251  and  _253
REMARK  107  A    between atoms: _253  and  _254
REMARK  108  A    between atoms: _253  and  _256
REMARK  109  A    between atoms: _256  and  _257
REMARK  110  A    between atoms: _257  and  _258
REMARK  111  A    between atoms: _260  and  _262
REMARK  112  A    between atoms: _262  and  _263
REMARK  113  A    between atoms: _266  and  _268
REMARK  114  A    between atoms: _268  and  _269
REMARK  115  A    between atoms: _272  and  _274
REMARK  116  A    between atoms: _274  and  _275
REMARK  117  A    between atoms: _274  and  _277
REMARK  118  A    between atoms: _277  and  _278
REMARK  119  A    between atoms: _281  and  _283
REMARK  120  A    between atoms: _283  and  _284
REMARK  121  A    between atoms: _287  and  _289
REMARK  122  A    between atoms: _289  and  _290
REMARK  123  A    between atoms: _293  and  _295
REMARK  124  A    between atoms: _295  and  _296
REMARK  125  A    between atoms: _298  and  _300
REMARK  126  A    between atoms: _300  and  _301
REMARK  127  A    between atoms: _300  and  _303
REMARK  128  A    between atoms: _303  and  _304
REMARK  129  A    between atoms: _309  and  _311
REMARK  130  A    between atoms: _311  and  _312
REMARK  131  A    between atoms: _311  and  _314
REMARK  132  A    between atoms: _314  and  _315
REMARK  133  A    between atoms: _315  and  _316
REMARK  134  A    between atoms: _319  and  _321
REMARK  135  A    between atoms: _321  and  _322
REMARK  136  A    between atoms: _321  and  _324
REMARK  137  A    between atoms: _324  and  _325
REMARK  138  A    between atoms: _328  and  _330
REMARK  139  A    between atoms: _330  and  _331
REMARK  140  A    between atoms: _330  and  _333
REMARK  141  A    between atoms: _333  and  _334
REMARK  142  A    between atoms: _334  and  _335
REMARK  143  A    between atoms: _335  and  _336
REMARK  144  A    between atoms: _345  and  _347
REMARK  145  A    between atoms: _347  and  _348
REMARK  146  A    between atoms: _351  and  _352
REMARK  147  A    between atoms: _357  and  _359
REMARK  148  A    between atoms: _359  and  _360
REMARK  149  A    between atoms: _359  and  _362
REMARK  150  A    between atoms: _362  and  _363
REMARK  151  A    between atoms: _363  and  _364
REMARK  152  A    between atoms: _366  and  _368
REMARK  153  A    between atoms: _368  and  _369
REMARK  154  A    between atoms: _368  and  _371
REMARK  155  A    between atoms: _371  and  _372
REMARK  156  A    between atoms: _372  and  _373
REMARK  157  A    between atoms: _375  and  _377
REMARK  158  A    between atoms: _377  and  _378
REMARK  159  A    between atoms: _377  and  _380
REMARK  160  A    between atoms: _380  and  _381
REMARK  161  A    between atoms: _386  and  _388
REMARK  162  A    between atoms: _388  and  _389
REMARK  163  A    between atoms: _388  and  _391
REMARK  164  A    between atoms: _391  and  _392
REMARK  165  A    between atoms: _395  and  _397
REMARK  166  A    between atoms: _397  and  _398
REMARK  167  A    between atoms: _397  and  _400
REMARK  168  A    between atoms: _400  and  _401
REMARK  169  A    between atoms: _403  and  _405
REMARK  170  A    between atoms: _405  and  _406
REMARK  171  A    between atoms: _405  and  _408
REMARK  172  A    between atoms: _408  and  _409
REMARK  173  A    between atoms: _409  and  _410
REMARK  174  A    between atoms: _410  and  _411
REMARK  175  A    between atoms: _411  and  _412
REMARK  176  A    between atoms: _416  and  _418
REMARK  177  A    between atoms: _418  and  _419
REMARK  178  A    between atoms: _418  and  _421
REMARK  179  A    between atoms: _421  and  _422
REMARK  180  A    between atoms: _425  and  _427
REMARK  181  A    between atoms: _427  and  _428
REMARK  182  A    between atoms: _427  and  _430
REMARK  183  A    between atoms: _430  and  _431
REMARK  184  A    between atoms: _431  and  _432
REMARK  185  A    between atoms: _435  and  _437
REMARK  186  A    between atoms: _437  and  _438
REMARK  187  A    between atoms: _441  and  _443
REMARK  188  A    between atoms: _443  and  _444
REMARK  189  A    between atoms: _443  and  _446
REMARK  190  A    between atoms: _449  and  _451
REMARK  191  A    between atoms: _451  and  _452
REMARK  192  A    between atoms: _451  and  _454
REMARK  193  A    between atoms: _454  and  _455
REMARK  194  A    between atoms: _457  and  _459
REMARK  195  A    between atoms: _459  and  _460
REMARK  196  A    between atoms: _462  and  _464
REMARK  197  A    between atoms: _464  and  _465
REMARK  198  A    between atoms: _464  and  _467
REMARK  199  A    between atoms: _467  and  _468
REMARK  200  A    between atoms: _473  and  _475
REMARK  201  A    between atoms: _475  and  _476
REMARK  202  A    between atoms: _475  and  _478
REMARK  203  A    between atoms: _478  and  _479
REMARK  204  A    between atoms: _484  and  _485
REMARK  205  A    between atoms: _487  and  _489
REMARK  206  A    between atoms: _489  and  _490
REMARK  207  A    between atoms: _489  and  _492
REMARK  208  A    between atoms: _494  and  _496
REMARK  209  A    between atoms: _496  and  _497
REMARK  210  A    between atoms: _496  and  _499
REMARK  211  A    between atoms: _499  and  _500
REMARK  212  A    between atoms: _503  and  _505
REMARK  213  A    between atoms: _505  and  _506
REMARK  214  A    between atoms: _505  and  _508
REMARK  215  A    between atoms: _508  and  _509
REMARK  216  A    between atoms: _512  and  _514
REMARK  217  A    between atoms: _514  and  _515
REMARK  218  A    between atoms: _514  and  _517
REMARK  219  A    between atoms: _517  and  _518
REMARK  220  A    between atoms: _518  and  _519
REMARK  221  A    between atoms: _519  and  _520
REMARK  222  A    between atoms: _520  and  _521
REMARK  223  A    between atoms: _525  and  _527
REMARK  224  A    between atoms: _527  and  _528
REMARK  225  A    between atoms: _527  and  _530
REMARK  226  A    between atoms: _530  and  _531
REMARK  227  A    between atoms: _531  and  _532
REMARK  228  A    between atoms: _532  and  _533
REMARK  229  A    between atoms: _533  and  _534
REMARK  230  A    between atoms: _538  and  _540
REMARK  231  A    between atoms: _540  and  _541
REMARK  232  A    between atoms: _540  and  _543
REMARK  233  A    between atoms: _543  and  _544
REMARK  234  A    between atoms: _544  and  _545
REMARK  235  A    between atoms: _545  and  _546
REMARK  236  A    between atoms: _555  and  _557
REMARK  237  A    between atoms: _557  and  _558
REMARK  238  A    between atoms: _557  and  _560
REMARK  239  A    between atoms: _560  and  _561
REMARK  240  A    between atoms: _564  and  _566
REMARK  241  A    between atoms: _566  and  _567
REMARK  242  A    between atoms: _570  and  _572
REMARK  243  A    between atoms: _572  and  _573
REMARK  244  A    between atoms: _572  and  _575
REMARK  245  A    between atoms: _575  and  _576
REMARK  246  A    between atoms: _576  and  _577
REMARK                            x       y       z     vdW  Elec       q    Type
REMARK                         _______ _______ _______ _____ _____    ______ ____
ROOT
ATOM      1  CA  SER A   2      -8.261 -18.802  16.364  0.00  0.00    +0.178 C 
ENDROOT
BRANCH   1   4
ATOM      2  C   ILE A   1      -7.376 -19.599  18.508  0.00  0.00    +0.238 C 
ATOM      3  O   ILE A   1      -8.182 -18.942  19.150  0.00  0.00    -0.274 OA
ATOM      4  N   SER A   2      -7.330 -19.589  17.176  0.00  0.00    -0.295 N 
ATOM      5  H   SER A   2      -6.606 -20.161  16.696  0.00  0.00    +0.150 HD
BRANCH   2   6
ATOM      6  CA  ILE A   1      -6.373 -20.500  19.236  0.00  0.00    +0.145 C 
BRANCH   6   7
ATOM      7  N   ILE A   1      -6.086 -21.689  18.436  0.00  0.00    -0.238 NA
ATOM      8  H   ILE A   1      -5.134 -21.805  18.033  0.00  0.00    +0.142 HD
ENDBRANCH   6   7
BRANCH   6   9
ATOM      9  CB  ILE A   1      -5.067 -19.715  19.578  0.00  0.00    +0.025 C 
ATOM     10  CG2 ILE A   1      -5.384 -18.428  20.345  0.00  0.00    +0.002 C 
BRANCH   9  11
ATOM     11  CG1 ILE A   1      -4.094 -20.580  20.394  0.00  0.00    +0.002 C 
ATOM     12  CD1 ILE A   1      -4.411 -20.684  21.866  0.00  0.00    +0.000 C 
ENDBRANCH   9  11
ENDBRANCH   6   9
ENDBRANCH   2   6
ENDBRANCH   1   4
BRANCH   1  13
ATOM     13  C   SER A   2      -9.689 -19.327  16.484  0.00  0.00    +0.243 C 
ATOM     14  N   LYS A   3      -9.820 -20.646  16.592  0.00  0.00    -0.298 N 
ATOM     15  H   LYS A   3      -8.961 -21.233  16.573  0.00  0.00    +0.150 HD
ATOM     16  O   SER A   2     -10.640 -18.554  16.472  0.00  0.00    -0.273 OA
BRANCH  14  17
ATOM     17  CA  LYS A   3     -11.114 -21.310  16.736  0.00  0.00    +0.137 C 
BRANCH  17  18
ATOM     18  C   LYS A   3     -11.733 -20.943  18.082  0.00  0.00    +0.227 C 
ATOM     19  O   LYS A   3     -12.867 -20.469  18.143  0.00  0.00    -0.286 OA
ENDBRANCH  17  18
BRANCH  17  20
ATOM     20  CB  LYS A   3     -10.946 -22.835  16.635  0.00  0.00    +0.028 C 
BRANCH  20  21
ATOM     21  CG  LYS A   3     -11.840 -23.517  15.609  0.00  0.00    -0.000 C 
BRANCH  21  22
ATOM     22  CD  LYS A   3     -11.566 -25.023  15.566  0.00  0.00    -0.024 C 
BRANCH  22  23
ATOM     23  CE  LYS A   3     -12.787 -25.824  15.103  0.00  0.00    -0.086 C 
BRANCH  23  24
ATOM     24  NZ  LYS A   3     -13.791 -26.007  16.196  0.00  0.00    +0.380 N 
ATOM     25  HZ1 LYS A   3     -13.351 -26.518  16.988  0.00  0.00    -0.089 HD
ATOM     26  HZ2 LYS A   3     -14.120 -25.076  16.522  0.00  0.00    -0.089 HD
ATOM     27  HZ3 LYS A   3     -14.598 -26.554  15.835  0.00  0.00    -0.089 HD
ENDBRANCH  23  24
ENDBRANCH  22  23
ENDBRANCH  21  22
ENDBRANCH  20  21
ENDBRANCH  17  20
ENDBRANCH  14  17
ENDBRANCH   1  13
BRANCH   1  28
ATOM     28  CB  SER A   2      -7.849 -18.800  14.884  0.00  0.00    +0.166 C 
BRANCH  28  29
ATOM     29  OG  SER A   2      -6.982 -17.713  14.602  0.00  0.00    -0.380 OA
ATOM     30  H   SER A   2      -6.731 -17.733  13.645  0.00  0.00    +0.211 HD
ENDBRANCH  28  29
ENDBRANCH   1  28
TORSDOF 15
REMARK  Name = ../refined-set-2016/3cd7/3cd7_pocket.pdb
REMARK  246 active torsions:
REMARK  status: ('A' for Active; 'I' for Inactive)
REMARK    1  A    between atoms: _1  and  _3
REMARK    2  A    between atoms: _3  and  _4
REMARK    3  A    between atoms: _3  and  _6
REMARK    4  A    between atoms: _6  and  _7
REMARK    5  A    between atoms: _7  and  _8
REMARK    6  A    between atoms: _11  and  _13
REMARK    7  A    between atoms: _13  and  _14
REMARK    8  A    between atoms: _16  and  _18
REMARK    9  A    between atoms: _18  and  _19
REMARK   10  A    between atoms: _18  and  _21
REMARK   11  A    between atoms: _23  and  _25
REMARK   12  A    between atoms: _25  and  _26
REMARK   13  A    between atoms: _25  and  _28
REMARK   14  A    between atoms: _28  and  _29
REMARK   15  A    between atoms: _32  and  _34
REMARK   16  A    between atoms: _34  and  _35
REMARK   17  A    between atoms: _34  and  _37
REMARK   18  A    between atoms: _40  and  _42
REMARK   19  A    between atoms: _42  and  _43
REMARK   20  A    between atoms: _46  and  _48
REMARK   21  A    between atoms: _48  and  _49
REMARK   22  A    between atoms: _48  and  _51
REMARK   23  A    between atoms: _51  and  _52
REMARK   24  A    between atoms: _54  and  _56
REMARK   25  A    between atoms: _56  and  _57
REMARK   26  A    between atoms: _56  and  _59
REMARK   27  A    between atoms: _59  and  _60
REMARK   28  A    between atoms: _63  and  _65
REMARK   29  A    between atoms: _65  and  _66
REMARK   30  A    between atoms: _65  and  _68
REMARK   31  A    between atoms: _68  and  _69
REMARK   32  A    between atoms: _74  and  _76
REMARK   33  A    between atoms: _76  and  _77
REMARK   34  A    between atoms: _76  and  _79
REMARK   35  A    between atoms: _79  and  _80
REMARK   36  A    between atoms: _80  and  _81
REMARK   37  A    between atoms: _81  and  _82
REMARK   38  A    between atoms: _91  and  _93
REMARK   39  A    between atoms: _93  and  _94
REMARK   40  A    between atoms: _96  and  _98
REMARK   41  A    between atoms: _98  and  _99
REMARK   42  A    between atoms: _98  and  _101
REMARK   43  A    between atoms: _104  and  _106
REMARK   44  A    between atoms: _106  and  _107
REMARK   45  A    between atoms: _106  and  _109
REMARK   46  A    between atoms: _109  and  _110
REMARK   47  A    between atoms: _113  and  _115
REMARK   48  A    between atoms: _115  and  _116
REMARK   49  A    between atoms: _115  and  _118
REMARK   50  A    between atoms: _118  and  _119
REMARK   51  A    between atoms: _119  and  _120
REMARK   52  A    between atoms: _120  and  _121
REMARK   53  A    between atoms: _121  and  _122
REMARK   54  A    between atoms: _126  and  _128
REMARK   55  A    between atoms: _128  and  _129
REMARK   56  A    between atoms: _128  and  _131
REMARK   57  A    between atoms: _131  and  _132
REMARK   58  A    between atoms: _132  and  _133
REMARK   59  A    between atoms: _133  and  _134
REMARK   60  A    between atoms: _134  and  _135
REMARK   61  A    between atoms: _139  and  _141
REMARK   62  A    between atoms: _141  and  _142
REMARK   63  A    between atoms: _141  and  _144
REMARK   64  A    between atoms: _144  and  _145
REMARK   65  A    between atoms: _150  and  _152
REMARK   66  A    between atoms: _152  and  _153
REMARK   67  A    between atoms: _152  and  _155
REMARK   68  A    between atoms: _155  and  _156
REMARK   69  A    between atoms: _161  and  _163
REMARK   70  A    between atoms: _163  and  _164
REMARK   71  A    between atoms: _167  and  _169
REMARK   72  A    between atoms: _169  and  _170
REMARK   73  A    between atoms: _169  and  _172
REMARK   74  A    between atoms: _172  and  _173
REMARK   75  A    between atoms: _178  and  _180
REMARK   76  A    between atoms: _180  and  _181
REMARK   77  A    between atoms: _184  and  _186
REMARK   78  A    between atoms: _186  and  _187
REMARK   79  A    between atoms: _190  and  _192
REMARK   80  A    between atoms: _192  and  _193
REMARK   81  A    between atoms: _192  and  _195
REMARK   82  A    between atoms: _195  and  _196
REMARK   83  A    between atoms: _201  and  _203
REMARK   84  A    between atoms: _203  and  _204
REMARK   85  A    between atoms: _203  and  _206
REMARK   86  A    between atoms: _206  and  _207
REMARK   87  A    between atoms: _210  and  _212
REMARK   88  A    between atoms: _212  and  _213
REMARK   89  A    between atoms: _215  and  _217
REMARK   90  A    between atoms: _217  and  _218
REMARK   91  A    between atoms: _217  and  _220
REMARK   92  A    between atoms: _220  and  _221
REMARK   93  A    between atoms: _221  and  _222
REMARK   94  A    between atoms: _225  and  _227
REMARK   95  A    between atoms: _227  and  _228
REMARK   96  A    between atoms: _227  and  _230
REMARK   97  A    between atoms: _230  and  _231
REMARK   98  A    between atoms: _234  and  _236
REMARK   99  A    between atoms: _236  and  _237
REMARK  100  A    between atoms: _236  and  _239
REMARK  101  A    between atoms: _239  and  _240
REMARK  102  A    between atoms: _242  and  _244
REMARK  103  A    between atoms: _244  and  _245
REMARK  104  A    between atoms: _244  and  _247
REMARK  105  A    between atoms: _247  and  _248
REMARK  106  A    between atoms: _251  and  _253
REMARK  107  A    between atoms: _253  and  _254
REMARK  108  A    between atoms: _253  and  _256
REMARK  109  A    between atoms: _256  and  _257
REMARK  110  A    between atoms: _257  and  _258
REMARK  111  A    between atoms: _260  and  _262
REMARK  112  A    between atoms: _262  and  _263
REMARK  113  A    between atoms: _266  and  _268
REMARK  114  A    between atoms: _268  and  _269
REMARK  115  A    between atoms: _272  and  _274
REMARK  116  A    between atoms: _274  and  _275
REMARK  117  A    between atoms: _274  and  _277
REMARK  118  A    between atoms: _277  and  _278
REMARK  119  A    between atoms: _281  and  _283
REMARK  120  A    between atoms: _283  and  _284
REMARK  121  A    between atoms: _287  and  _289
REMARK  122  A    between atoms: _289  and  _290
REMARK  123  A    between atoms: _293  and  _295
REMARK  124  A    between atoms: _295  and  _296
REMARK  125  A    between atoms: _298  and  _300
REMARK  126  A    between atoms: _300  and  _301
REMARK  127  A    between atoms: _300  and  _303
REMARK  128  A    between atoms: _303  and  _304
REMARK  129  A    between atoms: _309  and  _311
REMARK  130  A    between atoms: _311  and  _312
REMARK  131  A    between atoms: _311  and  _314
REMARK  132  A    between atoms: _314  and  _315
REMARK  133  A    between atoms: _315  and  _316
REMARK  134  A    between atoms: _319  and  _321
REMARK  135  A    between atoms: _321  and  _322
REMARK  136  A    between atoms: _321  and  _324
REMARK  137  A    between atoms: _324  and  _325
REMARK  138  A    between atoms: _328  and  _330
REMARK  139  A    between atoms: _330  and  _331
REMARK  140  A    between atoms: _330  and  _333
REMARK  141  A    between atoms: _333  and  _334
REMARK  142  A    between atoms: _334  and  _335
REMARK  143  A    between atoms: _335  and  _336
REMARK  144  A    between atoms: _345  and  _347
REMARK  145  A    between atoms: _347  and  _348
REMARK  146  A    between atoms: _351  and  _352
REMARK  147  A    between atoms: _357  and  _359
REMARK  148  A    between atoms: _359  and  _360
REMARK  149  A    between atoms: _359  and  _362
REMARK  150  A    between atoms: _362  and  _363
REMARK  151  A    between atoms: _363  and  _364
REMARK  152  A    between atoms: _366  and  _368
REMARK  153  A    between atoms: _368  and  _369
REMARK  154  A    between atoms: _368  and  _371
REMARK  155  A    between atoms: _371  and  _372
REMARK  156  A    between atoms: _372  and  _373
REMARK  157  A    between atoms: _375  and  _377
REMARK  158  A    between atoms: _377  and  _378
REMARK  159  A    between atoms: _377  and  _380
REMARK  160  A    between atoms: _380  and  _381
REMARK  161  A    between atoms: _386  and  _388
REMARK  162  A    between atoms: _388  and  _389
REMARK  163  A    between atoms: _388  and  _391
REMARK  164  A    between atoms: _391  and  _392
REMARK  165  A    between atoms: _395  and  _397
REMARK  166  A    between atoms: _397  and  _398
REMARK  167  A    between atoms: _397  and  _400
REMARK  168  A    between atoms: _400  and  _401
REMARK  169  A    between atoms: _403  and  _405
REMARK  170  A    between atoms: _405  and  _406
REMARK  171  A    between atoms: _405  and  _408
REMARK  172  A    between atoms: _408  and  _409
REMARK  173  A    between atoms: _409  and  _410
REMARK  174  A    between atoms: _410  and  _411
REMARK  175  A    between atoms: _411  and  _412
REMARK  176  A    between atoms: _416  and  _418
REMARK  177  A    between atoms: _418  and  _419
REMARK  178  A    between atoms: _418  and  _421
REMARK  179  A    between atoms: _421  and  _422
REMARK  180  A    between atoms: _425  and  _427
REMARK  181  A    between atoms: _427  and  _428
REMARK  182  A    between atoms: _427  and  _430
REMARK  183  A    between atoms: _430  and  _431
REMARK  184  A    between atoms: _431  and  _432
REMARK  185  A    between atoms: _435  and  _437
REMARK  186  A    between atoms: _437  and  _438
REMARK  187  A    between atoms: _441  and  _443
REMARK  188  A    between atoms: _443  and  _444
REMARK  189  A    between atoms: _443  and  _446
REMARK  190  A    between atoms: _449  and  _451
REMARK  191  A    between atoms: _451  and  _452
REMARK  192  A    between atoms: _451  and  _454
REMARK  193  A    between atoms: _454  and  _455
REMARK  194  A    between atoms: _457  and  _459
REMARK  195  A    between atoms: _459  and  _460
REMARK  196  A    between atoms: _462  and  _464
REMARK  197  A    between atoms: _464  and  _465
REMARK  198  A    between atoms: _464  and  _467
REMARK  199  A    between atoms: _467  and  _468
REMARK  200  A    between atoms: _473  and  _475
REMARK  201  A    between atoms: _475  and  _476
REMARK  202  A    between atoms: _475  and  _478
REMARK  203  A    between atoms: _478  and  _479
REMARK  204  A    between atoms: _484  and  _485
REMARK  205  A    between atoms: _487  and  _489
REMARK  206  A    between atoms: _489  and  _490
REMARK  207  A    between atoms: _489  and  _492
REMARK  208  A    between atoms: _494  and  _496
REMARK  209  A    between atoms: _496  and  _497
REMARK  210  A    between atoms: _496  and  _499
REMARK  211  A    between atoms: _499  and  _500
REMARK  212  A    between atoms: _503  and  _505
REMARK  213  A    between atoms: _505  and  _506
REMARK  214  A    between atoms: _505  and  _508
REMARK  215  A    between atoms: _508  and  _509
REMARK  216  A    between atoms: _512  and  _514
REMARK  217  A    between atoms: _514  and  _515
REMARK  218  A    between atoms: _514  and  _517
REMARK  219  A    between atoms: _517  and  _518
REMARK  220  A    between atoms: _518  and  _519
REMARK  221  A    between atoms: _519  and  _520
REMARK  222  A    between atoms: _520  and  _521
REMARK  223  A    between atoms: _525  and  _527
REMARK  224  A    between atoms: _527  and  _528
REMARK  225  A    between atoms: _527  and  _530
REMARK  226  A    between atoms: _530  and  _531
REMARK  227  A    between atoms: _531  and  _532
REMARK  228  A    between atoms: _532  and  _533
REMARK  229  A    between atoms: _533  and  _534
REMARK  230  A    between atoms: _538  and  _540
REMARK  231  A    between atoms: _540  and  _541
REMARK  232  A    between atoms: _540  and  _543
REMARK  233  A    between atoms: _543  and  _544
REMARK  234  A    between atoms: _544  and  _545
REMARK  235  A    between atoms: _545  and  _546
REMARK  236  A    between atoms: _555  and  _557
REMARK  237  A    between atoms: _557  and  _558
REMARK  238  A    between atoms: _557  and  _560
REMARK  239  A    between atoms: _560  and  _561
REMARK  240  A    between atoms: _564  and  _566
REMARK  241  A    between atoms: _566  and  _567
REMARK  242  A    between atoms: _570  and  _572
REMARK  243  A    between atoms: _572  and  _573
REMARK  244  A    between atoms: _572  and  _575
REMARK  245  A    between atoms: _575  and  _576
REMARK  246  A    between atoms: _576  and  _577
REMARK                            x       y       z     vdW  Elec       q    Type
REMARK                         _______ _______ _______ _____ _____    ______ ____
ROOT
ATOM      1  C   THR A   1     -12.498 -16.708  19.453  0.00  0.00    +0.241 C 
ATOM      2  O   THR A   1     -13.267 -15.967  20.046  0.00  0.00    -0.274 OA
ATOM      3  N   GLU A   2     -12.778 -17.241  18.269  0.00  0.00    -0.298 N 
ATOM      4  H   GLU A   2     -12.111 -17.921  17.850  0.00  0.00    +0.150 HD
ENDROOT
BRANCH   1   5
ATOM      5  CA  THR A   1     -11.165 -17.086  20.084  0.00  0.00    +0.172 C 
BRANCH   5   6
ATOM      6  N   THR A   1     -10.969 -18.527  20.001  0.00  0.00    -0.236 NA
ATOM      7  H   THR A   1     -10.224 -18.899  19.378  0.00  0.00    +0.142 HD
ENDBRANCH   5   6
BRANCH   5   8
ATOM      8  CB  THR A   1      -9.991 -16.333  19.404  0.00  0.00    +0.135 C 
ATOM      9  CG2 THR A   1     -10.218 -14.832  19.391  0.00  0.00    +0.034 C 
BRANCH   8  10
ATOM     10  OG1 THR A   1      -8.800 -16.485  20.189  0.00  0.00    -0.383 OA
ATOM     11  HG1 THR A   1      -8.575 -17.446  20.263  0.00  0.00    +0.210 HD
ENDBRANCH   8  10
ENDBRANCH   5   8
ENDBRANCH   1   5
BRANCH   3  12
ATOM     12  CA  GLU A   2     -14.001 -16.898  17.535  0.00  0.00    +0.137 C 
BRANCH  12  13
ATOM     13  C   GLU A   2     -15.266 -17.305  18.276  0.00  0.00    +0.227 C 
ATOM     14  O   GLU A   2     -16.258 -16.582  18.248  0.00  0.00    -0.286 OA
ENDBRANCH  12  13
BRANCH  12  15
ATOM     15  CB  GLU A   2     -14.000 -17.527  16.142  0.00  0.00    +0.039 C 
BRANCH  15  16
ATOM     16  CG  GLU A   2     -13.366 -16.650  15.073  0.00  0.00    +0.116 C 
BRANCH  16  17
ATOM     17  CD  GLU A   2     -13.547 -17.222  13.679  0.00  0.00    +0.365 C 
ATOM     18  OE2 GLU A   2     -14.707 -17.516  13.306  0.00  0.00    -0.246 OA
ATOM     19  OE1 GLU A   2     -12.534 -17.379  12.958  0.00  0.00    -0.246 OA
ENDBRANCH  16  17
ENDBRANCH  15  16
ENDBRANCH  12  15
ENDBRANCH   3  12
TORSDOF 9
REMARK  Name = ../refined-set-2016/3cd7/3cd7_pocket.pdb
REMARK  246 active torsions:
REMARK  status: ('A' for Active; 'I' for Inactive)
REMARK    1  A    between atoms: _1  and  _3
REMARK    2  A    between atoms: _3  and  _4
REMARK    3  A    between atoms: _3  and  _6
REMARK    4  A    between atoms: _6  and  _7
REMARK    5  A    between atoms: _7  and  _8
REMARK    6  A    between atoms: _11  and  _13
REMARK    7  A    between atoms: _13  and  _14
REMARK    8  A    between atoms: _16  and  _18
REMARK    9  A    between atoms: _18  and  _19
REMARK   10  A    between atoms: _18  and  _21
REMARK   11  A    between atoms: _23  and  _25
REMARK   12  A    between atoms: _25  and  _26
REMARK   13  A    between atoms: _25  and  _28
REMARK   14  A    between atoms: _28  and  _29
REMARK   15  A    between atoms: _32  and  _34
REMARK   16  A    between atoms: _34  and  _35
REMARK   17  A    between atoms: _34  and  _37
REMARK   18  A    between atoms: _40  and  _42
REMARK   19  A    between atoms: _42  and  _43
REMARK   20  A    between atoms: _46  and  _48
REMARK   21  A    between atoms: _48  and  _49
REMARK   22  A    between atoms: _48  and  _51
REMARK   23  A    between atoms: _51  and  _52
REMARK   24  A    between atoms: _54  and  _56
REMARK   25  A    between atoms: _56  and  _57
REMARK   26  A    between atoms: _56  and  _59
REMARK   27  A    between atoms: _59  and  _60
REMARK   28  A    between atoms: _63  and  _65
REMARK   29  A    between atoms: _65  and  _66
REMARK   30  A    between atoms: _65  and  _68
REMARK   31  A    between atoms: _68  and  _69
REMARK   32  A    between atoms: _74  and  _76
REMARK   33  A    between atoms: _76  and  _77
REMARK   34  A    between atoms: _76  and  _79
REMARK   35  A    between atoms: _79  and  _80
REMARK   36  A    between atoms: _80  and  _81
REMARK   37  A    between atoms: _81  and  _82
REMARK   38  A    between atoms: _91  and  _93
REMARK   39  A    between atoms: _93  and  _94
REMARK   40  A    between atoms: _96  and  _98
REMARK   41  A    between atoms: _98  and  _99
REMARK   42  A    between atoms: _98  and  _101
REMARK   43  A    between atoms: _104  and  _106
REMARK   44  A    between atoms: _106  and  _107
REMARK   45  A    between atoms: _106  and  _109
REMARK   46  A    between atoms: _109  and  _110
REMARK   47  A    between atoms: _113  and  _115
REMARK   48  A    between atoms: _115  and  _116
REMARK   49  A    between atoms: _115  and  _118
REMARK   50  A    between atoms: _118  and  _119
REMARK   51  A    between atoms: _119  and  _120
REMARK   52  A    between atoms: _120  and  _121
REMARK   53  A    between atoms: _121  and  _122
REMARK   54  A    between atoms: _126  and  _128
REMARK   55  A    between atoms: _128  and  _129
REMARK   56  A    between atoms: _128  and  _131
REMARK   57  A    between atoms: _131  and  _132
REMARK   58  A    between atoms: _132  and  _133
REMARK   59  A    between atoms: _133  and  _134
REMARK   60  A    between atoms: _134  and  _135
REMARK   61  A    between atoms: _139  and  _141
REMARK   62  A    between atoms: _141  and  _142
REMARK   63  A    between atoms: _141  and  _144
REMARK   64  A    between atoms: _144  and  _145
REMARK   65  A    between atoms: _150  and  _152
REMARK   66  A    between atoms: _152  and  _153
REMARK   67  A    between atoms: _152  and  _155
REMARK   68  A    between atoms: _155  and  _156
REMARK   69  A    between atoms: _161  and  _163
REMARK   70  A    between atoms: _163  and  _164
REMARK   71  A    between atoms: _167  and  _169
REMARK   72  A    between atoms: _169  and  _170
REMARK   73  A    between atoms: _169  and  _172
REMARK   74  A    between atoms: _172  and  _173
REMARK   75  A    between atoms: _178  and  _180
REMARK   76  A    between atoms: _180  and  _181
REMARK   77  A    between atoms: _184  and  _186
REMARK   78  A    between atoms: _186  and  _187
REMARK   79  A    between atoms: _190  and  _192
REMARK   80  A    between atoms: _192  and  _193
REMARK   81  A    between atoms: _192  and  _195
REMARK   82  A    between atoms: _195  and  _196
REMARK   83  A    between atoms: _201  and  _203
REMARK   84  A    between atoms: _203  and  _204
REMARK   85  A    between atoms: _203  and  _206
REMARK   86  A    between atoms: _206  and  _207
REMARK   87  A    between atoms: _210  and  _212
REMARK   88  A    between atoms: _212  and  _213
REMARK   89  A    between atoms: _215  and  _217
REMARK   90  A    between atoms: _217  and  _218
REMARK   91  A    between atoms: _217  and  _220
REMARK   92  A    between atoms: _220  and  _221
REMARK   93  A    between atoms: _221  and  _222
REMARK   94  A    between atoms: _225  and  _227
REMARK   95  A    between atoms: _227  and  _228
REMARK   96  A    between atoms: _227  and  _230
REMARK   97  A    between atoms: _230  and  _231
REMARK   98  A    between atoms: _234  and  _236
REMARK   99  A    between atoms: _236  and  _237
REMARK  100  A    between atoms: _236  and  _239
REMARK  101  A    between atoms: _239  and  _240
REMARK  102  A    between atoms: _242  and  _244
REMARK  103  A    between atoms: _244  and  _245
REMARK  104  A    between atoms: _244  and  _247
REMARK  105  A    between atoms: _247  and  _248
REMARK  106  A    between atoms: _251  and  _253
REMARK  107  A    between atoms: _253  and  _254
REMARK  108  A    between atoms: _253  and  _256
REMARK  109  A    between atoms: _256  and  _257
REMARK  110  A    between atoms: _257  and  _258
REMARK  111  A    between atoms: _260  and  _262
REMARK  112  A    between atoms: _262  and  _263
REMARK  113  A    between atoms: _266  and  _268
REMARK  114  A    between atoms: _268  and  _269
REMARK  115  A    between atoms: _272  and  _274
REMARK  116  A    between atoms: _274  and  _275
REMARK  117  A    between atoms: _274  and  _277
REMARK  118  A    between atoms: _277  and  _278
REMARK  119  A    between atoms: _281  and  _283
REMARK  120  A    between atoms: _283  and  _284
REMARK  121  A    between atoms: _287  and  _289
REMARK  122  A    between atoms: _289  and  _290
REMARK  123  A    between atoms: _293  and  _295
REMARK  124  A    between atoms: _295  and  _296
REMARK  125  A    between atoms: _298  and  _300
REMARK  126  A    between atoms: _300  and  _301
REMARK  127  A    between atoms: _300  and  _303
REMARK  128  A    between atoms: _303  and  _304
REMARK  129  A    between atoms: _309  and  _311
REMARK  130  A    between atoms: _311  and  _312
REMARK  131  A    between atoms: _311  and  _314
REMARK  132  A    between atoms: _314  and  _315
REMARK  133  A    between atoms: _315  and  _316
REMARK  134  A    between atoms: _319  and  _321
REMARK  135  A    between atoms: _321  and  _322
REMARK  136  A    between atoms: _321  and  _324
REMARK  137  A    between atoms: _324  and  _325
REMARK  138  A    between atoms: _328  and  _330
REMARK  139  A    between atoms: _330  and  _331
REMARK  140  A    between atoms: _330  and  _333
REMARK  141  A    between atoms: _333  and  _334
REMARK  142  A    between atoms: _334  and  _335
REMARK  143  A    between atoms: _335  and  _336
REMARK  144  A    between atoms: _345  and  _347
REMARK  145  A    between atoms: _347  and  _348
REMARK  146  A    between atoms: _351  and  _352
REMARK  147  A    between atoms: _357  and  _359
REMARK  148  A    between atoms: _359  and  _360
REMARK  149  A    between atoms: _359  and  _362
REMARK  150  A    between atoms: _362  and  _363
REMARK  151  A    between atoms: _363  and  _364
REMARK  152  A    between atoms: _366  and  _368
REMARK  153  A    between atoms: _368  and  _369
REMARK  154  A    between atoms: _368  and  _371
REMARK  155  A    between atoms: _371  and  _372
REMARK  156  A    between atoms: _372  and  _373
REMARK  157  A    between atoms: _375  and  _377
REMARK  158  A    between atoms: _377  and  _378
REMARK  159  A    between atoms: _377  and  _380
REMARK  160  A    between atoms: _380  and  _381
REMARK  161  A    between atoms: _386  and  _388
REMARK  162  A    between atoms: _388  and  _389
REMARK  163  A    between atoms: _388  and  _391
REMARK  164  A    between atoms: _391  and  _392
REMARK  165  A    between atoms: _395  and  _397
REMARK  166  A    between atoms: _397  and  _398
REMARK  167  A    between atoms: _397  and  _400
REMARK  168  A    between atoms: _400  and  _401
REMARK  169  A    between atoms: _403  and  _405
REMARK  170  A    between atoms: _405  and  _406
REMARK  171  A    between atoms: _405  and  _408
REMARK  172  A    between atoms: _408  and  _409
REMARK  173  A    between atoms: _409  and  _410
REMARK  174  A    between atoms: _410  and  _411
REMARK  175  A    between atoms: _411  and  _412
REMARK  176  A    between atoms: _416  and  _418
REMARK  177  A    between atoms: _418  and  _419
REMARK  178  A    between atoms: _418  and  _421
REMARK  179  A    between atoms: _421  and  _422
REMARK  180  A    between atoms: _425  and  _427
REMARK  181  A    between atoms: _427  and  _428
REMARK  182  A    between atoms: _427  and  _430
REMARK  183  A    between atoms: _430  and  _431
REMARK  184  A    between atoms: _431  and  _432
REMARK  185  A    between atoms: _435  and  _437
REMARK  186  A    between atoms: _437  and  _438
REMARK  187  A    between atoms: _441  and  _443
REMARK  188  A    between atoms: _443  and  _444
REMARK  189  A    between atoms: _443  and  _446
REMARK  190  A    between atoms: _449  and  _451
REMARK  191  A    between atoms: _451  and  _452
REMARK  192  A    between atoms: _451  and  _454
REMARK  193  A    between atoms: _454  and  _455
REMARK  194  A    between atoms: _457  and  _459
REMARK  195  A    between atoms: _459  and  _460
REMARK  196  A    between atoms: _462  and  _464
REMARK  197  A    between atoms: _464  and  _465
REMARK  198  A    between atoms: _464  and  _467
REMARK  199  A    between atoms: _467  and  _468
REMARK  200  A    between atoms: _473  and  _475
REMARK  201  A    between atoms: _475  and  _476
REMARK  202  A    between atoms: _475  and  _478
REMARK  203  A    between atoms: _478  and  _479
REMARK  204  A    between atoms: _484  and  _485
REMARK  205  A    between atoms: _487  and  _489
REMARK  206  A    between atoms: _489  and  _490
REMARK  207  A    between atoms: _489  and  _492
REMARK  208  A    between atoms: _494  and  _496
REMARK  209  A    between atoms: _496  and  _497
REMARK  210  A    between atoms: _496  and  _499
REMARK  211  A    between atoms: _499  and  _500
REMARK  212  A    between atoms: _503  and  _505
REMARK  213  A    between atoms: _505  and  _506
REMARK  214  A    between atoms: _505  and  _508
REMARK  215  A    between atoms: _508  and  _509
REMARK  216  A    between atoms: _512  and  _514
REMARK  217  A    between atoms: _514  and  _515
REMARK  218  A    between atoms: _514  and  _517
REMARK  219  A    between atoms: _517  and  _518
REMARK  220  A    between atoms: _518  and  _519
REMARK  221  A    between atoms: _519  and  _520
REMARK  222  A    between atoms: _520  and  _521
REMARK  223  A    between atoms: _525  and  _527
REMARK  224  A    between atoms: _527  and  _528
REMARK  225  A    between atoms: _527  and  _530
REMARK  226  A    between atoms: _530  and  _531
REMARK  227  A    between atoms: _531  and  _532
REMARK  228  A    between atoms: _532  and  _533
REMARK  229  A    between atoms: _533  and  _534
REMARK  230  A    between atoms: _538  and  _540
REMARK  231  A    between atoms: _540  and  _541
REMARK  232  A    between atoms: _540  and  _543
REMARK  233  A    between atoms: _543  and  _544
REMARK  234  A    between atoms: _544  and  _545
REMARK  235  A    between atoms: _545  and  _546
REMARK  236  A    between atoms: _555  and  _557
REMARK  237  A    between atoms: _557  and  _558
REMARK  238  A    between atoms: _557  and  _560
REMARK  239  A    between atoms: _560  and  _561
REMARK  240  A    between atoms: _564  and  _566
REMARK  241  A    between atoms: _566  and  _567
REMARK  242  A    between atoms: _570  and  _572
REMARK  243  A    between atoms: _572  and  _573
REMARK  244  A    between atoms: _572  and  _575
REMARK  245  A    between atoms: _575  and  _576
REMARK  246  A    between atoms: _576  and  _577
REMARK                            x       y       z     vdW  Elec       q    Type
REMARK                         _______ _______ _______ _____ _____    ______ ____
ROOT
ATOM      1  C   TYR A   6      -1.720  -8.692  19.968  0.00  0.00    +0.241 C 
ATOM      2  O   TYR A   6      -1.411  -8.888  21.142  0.00  0.00    -0.273 OA
ATOM      3  N   CYS A   7      -1.549  -9.613  19.019  0.00  0.00    -0.296 N 
ATOM      4  H   CYS A   7      -1.749  -9.366  18.029  0.00  0.00    +0.150 HD
ENDROOT
BRANCH   1   5
ATOM      5  CA  TYR A   6      -2.282  -7.333  19.529  0.00  0.00    +0.153 C 
BRANCH   5   7
ATOM      6  C   ASN A   5      -1.756  -6.871  17.210  0.00  0.00    +0.241 C 
ATOM      7  N   TYR A   6      -2.601  -7.345  18.113  0.00  0.00    -0.297 N 
ATOM      8  H   TYR A   6      -3.513  -7.734  17.801  0.00  0.00    +0.150 HD
ATOM      9  O   ASN A   5      -0.641  -6.451  17.504  0.00  0.00    -0.273 OA
BRANCH   6  10
ATOM     10  CA  ASN A   5      -2.212  -6.929  15.753  0.00  0.00    +0.158 C 
BRANCH  10  13
ATOM     11  C   GLY A   4      -4.589  -6.260  15.926  0.00  0.00    +0.243 C 
ATOM     12  O   GLY A   4      -4.332  -5.220  16.536  0.00  0.00    -0.273 OA
ATOM     13  N   ASN A   5      -3.653  -7.132  15.547  0.00  0.00    -0.297 N 
ATOM     14  H   ASN A   5      -3.961  -8.007  15.078  0.00  0.00    +0.150 HD
BRANCH  11  15
ATOM     15  CA  GLY A   4      -6.034  -6.601  15.569  0.00  0.00    +0.176 C 
BRANCH  15  17
ATOM     16  C   SER A   3      -6.427  -8.724  14.436  0.00  0.00    +0.243 C 
ATOM     17  N   GLY A   4      -6.307  -8.030  15.562  0.00  0.00    -0.295 N 
ATOM     18  H   GLY A   4      -6.412  -8.525  16.470  0.00  0.00    +0.150 HD
ATOM     19  O   SER A   3      -6.511  -8.197  13.326  0.00  0.00    -0.273 OA
BRANCH  16  20
ATOM     20  CA  SER A   3      -6.451 -10.247  14.577  0.00  0.00    +0.178 C 
BRANCH  20  23
ATOM     21  C   VAL A   2      -8.520 -11.517  14.888  0.00  0.00    +0.241 C 
ATOM     22  O   VAL A   2      -8.123 -12.065  15.909  0.00  0.00    -0.273 OA
ATOM     23  N   SER A   3      -7.731 -10.777  14.110  0.00  0.00    -0.295 N 
ATOM     24  H   SER A   3      -8.036 -10.569  13.138  0.00  0.00    +0.150 HD
BRANCH  21  25
ATOM     25  CA  VAL A   2      -9.988 -11.657  14.458  0.00  0.00    +0.148 C 
BRANCH  25  28
ATOM     26  C   ALA A   1     -10.522  -9.319  13.955  0.00  0.00    +0.238 C 
ATOM     27  O   ALA A   1     -10.248  -8.953  15.099  0.00  0.00    -0.274 OA
ATOM     28  N   VAL A   2     -10.391 -10.578  13.547  0.00  0.00    -0.297 N 
ATOM     29  H   VAL A   2     -10.580 -10.806  12.550  0.00  0.00    +0.150 HD
BRANCH  26  30
ATOM     30  CA  ALA A   1     -10.994  -8.313  12.914  0.00  0.00    +0.145 C 
ATOM     31  CB  ALA A   1      -9.790  -7.590  12.310  0.00  0.00    +0.028 C 
BRANCH  30  32
ATOM     32  N   ALA A   1     -11.941  -7.346  13.476  0.00  0.00    -0.238 NA
ATOM     33  H   ALA A   1     -11.977  -7.219  14.508  0.00  0.00    +0.142 HD
ENDBRANCH  30  32
ENDBRANCH  26  30
ENDBRANCH  25  28
BRANCH  25  34
ATOM     34  CB  VAL A   2     -10.297 -13.079  13.873  0.00  0.00    +0.027 C 
ATOM     35  CG2 VAL A   2     -10.030 -14.156  14.895  0.00  0.00    +0.002 C 
ATOM     36  CG1 VAL A   2      -9.516 -13.360  12.585  0.00  0.00    +0.002 C 
ENDBRANCH  25  34
ENDBRANCH  21  25
ENDBRANCH  20  23
BRANCH  20  37
ATOM     37  CB  SER A   3      -5.279 -10.818  13.781  0.00  0.00    +0.166 C 
BRANCH  37  38
ATOM     38  OG  SER A   3      -4.093 -10.060  14.025  0.00  0.00    -0.380 OA
ATOM     39  H   SER A   3      -3.345 -10.443  13.502  0.00  0.00    +0.211 HD
ENDBRANCH  37  38
ENDBRANCH  20  37
ENDBRANCH  16  20
ENDBRANCH  15  17
ENDBRANCH  11  15
ENDBRANCH  10  13
BRANCH  10  40
ATOM     40  CB  ASN A   5      -1.710  -5.704  14.976  0.00  0.00    +0.114 C 
BRANCH  40  41
ATOM     41  CG  ASN A   5      -1.395  -6.029  13.533  0.00  0.00    +0.222 C 
ATOM     42  OD1 ASN A   5      -1.670  -7.131  13.072  0.00  0.00    -0.275 OA
ATOM     43  ND2 ASN A   5      -0.822  -5.071  12.812  0.00  0.00    -0.329 N 
ATOM     44 HD21 ASN A   5      -0.607  -4.151  13.247  0.00  0.00    +0.145 HD
ATOM     45 HD22 ASN A   5      -0.588  -5.241  11.813  0.00  0.00    +0.145 HD
ENDBRANCH  40  41
ENDBRANCH  10  40
ENDBRANCH   6  10
ENDBRANCH   5   7
BRANCH   5  46
ATOM     46  CB  TYR A   6      -3.530  -6.940  20.327  0.00  0.00    +0.055 C 
BRANCH  46  47
ATOM     47  CG  TYR A   6      -3.242  -6.424  21.715  0.00  0.00    -0.020 A 
ATOM     48  CD2 TYR A   6      -3.829  -7.015  22.828  0.00  0.00    -0.001 A 
ATOM     49  CE2 TYR A   6      -3.570  -6.554  24.107  0.00  0.00    +0.036 A 
ATOM     50  CZ  TYR A   6      -2.713  -5.490  24.287  0.00  0.00    +0.134 A 
ATOM     51  CE1 TYR A   6      -2.111  -4.883  23.202  0.00  0.00    +0.036 A 
ATOM     52  CD1 TYR A   6      -2.384  -5.347  21.921  0.00  0.00    -0.001 A 
BRANCH  50  53
ATOM     53  OH  TYR A   6      -2.455  -5.045  25.558  0.00  0.00    -0.506 OA
ATOM     54  HH  TYR A   6      -2.053  -5.778  26.088  0.00  0.00    +0.292 HD
ENDBRANCH  50  53
ENDBRANCH  46  47
ENDBRANCH   5  46
ENDBRANCH   1   5
BRANCH   3  55
ATOM     55  CA  CYS A   7      -1.084 -10.972  19.342  0.00  0.00    +0.160 C 
BRANCH  55  56
ATOM     56  C   CYS A   7       0.318 -11.016  19.935  0.00  0.00    +0.242 C 
ATOM     57  O   CYS A   7       0.490 -11.645  20.976  0.00  0.00    -0.273 OA
ATOM     58  N   THR A   8       1.339 -10.434  19.299  0.00  0.00    -0.295 N 
ATOM     59  H   THR A   8       2.212 -10.297  19.847  0.00  0.00    +0.150 HD
BRANCH  58  60
ATOM     60  CA  THR A   8       1.357  -9.970  17.915  0.00  0.00    +0.176 C 
BRANCH  60  61
ATOM     61  C   THR A   8       2.074 -11.027  17.074  0.00  0.00    +0.243 C 
ATOM     62  O   THR A   8       3.105 -11.552  17.480  0.00  0.00    -0.273 OA
ATOM     63  N   ASP A   9       1.531 -11.326  15.901  0.00  0.00    -0.296 N 
ATOM     64  H   ASP A   9       0.698 -10.792  15.583  0.00  0.00    +0.150 HD
BRANCH  63  65
ATOM     65  CA  ASP A   9       2.063 -12.379  15.042  0.00  0.00    +0.160 C 
BRANCH  65  66
ATOM     66  C   ASP A   9       2.834 -11.811  13.852  0.00  0.00    +0.241 C 
ATOM     67  N   LYS A  10       4.105 -12.198  13.743  0.00  0.00    -0.297 N 
ATOM     68  H   LYS A  10       4.522 -12.729  14.534  0.00  0.00    +0.150 HD
ATOM     69  O   ASP A   9       2.290 -11.053  13.065  0.00  0.00    -0.273 OA
BRANCH  67  70
ATOM     70  CA  LYS A  10       4.954 -11.922  12.578  0.00  0.00    +0.149 C 
BRANCH  70  71
ATOM     71  C   LYS A  10       5.278 -10.439  12.347  0.00  0.00    +0.241 C 
ATOM     72  N   LYS A  11       5.106  -9.625  13.386  0.00  0.00    -0.298 N 
ATOM     73  H   LYS A  11       4.599  -9.981  14.222  0.00  0.00    +0.150 HD
ATOM     74  O   LYS A  10       5.687 -10.042  11.252  0.00  0.00    -0.273 OA
BRANCH  72  75
ATOM     75  CA  LYS A  11       5.603  -8.249  13.397  0.00  0.00    +0.137 C 
BRANCH  75  76
ATOM     76  C   LYS A  11       6.314  -8.007  14.717  0.00  0.00    +0.227 C 
ATOM     77  O   LYS A  11       5.936  -8.587  15.732  0.00  0.00    -0.286 OA
ENDBRANCH  75  76
BRANCH  75  78
ATOM     78  CB  LYS A  11       4.458  -7.246  13.265  0.00  0.00    +0.028 C 
BRANCH  78  79
ATOM     79  CG  LYS A  11       3.878  -7.106  11.872  0.00  0.00    -0.000 C 
BRANCH  79  80
ATOM     80  CD  LYS A  11       2.731  -8.080  11.594  0.00  0.00    -0.024 C 
BRANCH  80  81
ATOM     81  CE  LYS A  11       1.545  -7.923  12.555  0.00  0.00    -0.086 C 
BRANCH  81  82
ATOM     82  NZ  LYS A  11       0.433  -8.840  12.196  0.00  0.00    +0.380 N 
ATOM     83  HZ1 LYS A  11      -0.353  -8.709  12.865  0.00  0.00    -0.089 HD
ATOM     84  HZ2 LYS A  11       0.768  -9.824  12.241  0.00  0.00    -0.089 HD
ATOM     85  HZ3 LYS A  11       0.108  -8.627  11.231  0.00  0.00    -0.089 HD
ENDBRANCH  81  82
ENDBRANCH  80  81
ENDBRANCH  79  80
ENDBRANCH  78  79
ENDBRANCH  75  78
ENDBRANCH  72  75
ENDBRANCH  70  71
BRANCH  70  86
ATOM     86  CB  LYS A  10       4.370 -12.594  11.326  0.00  0.00    +0.029 C 
BRANCH  86  87
ATOM     87  CG  LYS A  10       4.255 -14.115  11.472  0.00  0.00    +0.000 C 
BRANCH  87  88
ATOM     88  CD  LYS A  10       3.498 -14.761  10.315  0.00  0.00    -0.024 C 
BRANCH  88  89
ATOM     89  CE  LYS A  10       3.496 -16.277  10.406  0.00  0.00    -0.086 C 
BRANCH  89  90
ATOM     90  NZ  LYS A  10       2.639 -16.895   9.338  0.00  0.00    +0.380 N 
ATOM     91  HZ1 LYS A  10       1.661 -16.558   9.442  0.00  0.00    -0.089 HD
ATOM     92  HZ2 LYS A  10       2.663 -17.930   9.432  0.00  0.00    -0.089 HD
ATOM     93  HZ3 LYS A  10       3.003 -16.623   8.403  0.00  0.00    -0.089 HD
ENDBRANCH  89  90
ENDBRANCH  88  89
ENDBRANCH  87  88
ENDBRANCH  86  87
ENDBRANCH  70  86
ENDBRANCH  67  70
ENDBRANCH  65  66
BRANCH  65  94
ATOM     94  CB  ASP A   9       0.919 -13.267  14.542  0.00  0.00    +0.143 C 
BRANCH  94  95
ATOM     95  CG  ASP A   9       1.408 -14.542  13.874  0.00  0.00    +0.367 C 
ATOM     96  OD2 ASP A   9       2.240 -15.268  14.462  0.00  0.00    -0.246 OA
ATOM     97  OD1 ASP A   9       0.993 -14.896  12.754  0.00  0.00    -0.246 OA
ENDBRANCH  94  95
ENDBRANCH  65  94
ENDBRANCH  63  65
ENDBRANCH  60  61
BRANCH  60  98
ATOM     98  CB  THR A   8       2.116  -8.641  17.836  0.00  0.00    +0.137 C 
ATOM     99  CG2 THR A   8       2.094  -8.065  16.425  0.00  0.00    +0.034 C 
BRANCH  98 100
ATOM    100  OG1 THR A   8       1.441  -7.658  18.630  0.00  0.00    -0.382 OA
ATOM    101  HG1 THR A   8       0.521  -7.534  18.287  0.00  0.00    +0.210 HD
ENDBRANCH  98 100
ENDBRANCH  60  98
ENDBRANCH  58  60
ENDBRANCH  55  56
BRANCH  55 102
ATOM    102  CB  CYS A   7      -1.170 -11.941  18.153  0.00  0.00    +0.098 C 
ATOM    103  SG  CYS A   7      -2.578 -11.686  17.083  0.00  0.00    -0.080 S 
ENDBRANCH  55 102
ENDBRANCH   3  55
TORSDOF 45
REMARK  Name = ../refined-set-2016/3cd7/3cd7_pocket.pdb
REMARK  246 active torsions:
REMARK  status: ('A' for Active; 'I' for Inactive)
REMARK    1  A    between atoms: _1  and  _3
REMARK    2  A    between atoms: _3  and  _4
REMARK    3  A    between atoms: _3  and  _6
REMARK    4  A    between atoms: _6  and  _7
REMARK    5  A    between atoms: _7  and  _8
REMARK    6  A    between atoms: _11  and  _13
REMARK    7  A    between atoms: _13  and  _14
REMARK    8  A    between atoms: _16  and  _18
REMARK    9  A    between atoms: _18  and  _19
REMARK   10  A    between atoms: _18  and  _21
REMARK   11  A    between atoms: _23  and  _25
REMARK   12  A    between atoms: _25  and  _26
REMARK   13  A    between atoms: _25  and  _28
REMARK   14  A    between atoms: _28  and  _29
REMARK   15  A    between atoms: _32  and  _34
REMARK   16  A    between atoms: _34  and  _35
REMARK   17  A    between atoms: _34  and  _37
REMARK   18  A    between atoms: _40  and  _42
REMARK   19  A    between atoms: _42  and  _43
REMARK   20  A    between atoms: _46  and  _48
REMARK   21  A    between atoms: _48  and  _49
REMARK   22  A    between atoms: _48  and  _51
REMARK   23  A    between atoms: _51  and  _52
REMARK   24  A    between atoms: _54  and  _56
REMARK   25  A    between atoms: _56  and  _57
REMARK   26  A    between atoms: _56  and  _59
REMARK   27  A    between atoms: _59  and  _60
REMARK   28  A    between atoms: _63  and  _65
REMARK   29  A    between atoms: _65  and  _66
REMARK   30  A    between atoms: _65  and  _68
REMARK   31  A    between atoms: _68  and  _69
REMARK   32  A    between atoms: _74  and  _76
REMARK   33  A    between atoms: _76  and  _77
REMARK   34  A    between atoms: _76  and  _79
REMARK   35  A    between atoms: _79  and  _80
REMARK   36  A    between atoms: _80  and  _81
REMARK   37  A    between atoms: _81  and  _82
REMARK   38  A    between atoms: _91  and  _93
REMARK   39  A    between atoms: _93  and  _94
REMARK   40  A    between atoms: _96  and  _98
REMARK   41  A    between atoms: _98  and  _99
REMARK   42  A    between atoms: _98  and  _101
REMARK   43  A    between atoms: _104  and  _106
REMARK   44  A    between atoms: _106  and  _107
REMARK   45  A    between atoms: _106  and  _109
REMARK   46  A    between atoms: _109  and  _110
REMARK   47  A    between atoms: _113  and  _115
REMARK   48  A    between atoms: _115  and  _116
REMARK   49  A    between atoms: _115  and  _118
REMARK   50  A    between atoms: _118  and  _119
REMARK   51  A    between atoms: _119  and  _120
REMARK   52  A    between atoms: _120  and  _121
REMARK   53  A    between atoms: _121  and  _122
REMARK   54  A    between atoms: _126  and  _128
REMARK   55  A    between atoms: _128  and  _129
REMARK   56  A    between atoms: _128  and  _131
REMARK   57  A    between atoms: _131  and  _132
REMARK   58  A    between atoms: _132  and  _133
REMARK   59  A    between atoms: _133  and  _134
REMARK   60  A    between atoms: _134  and  _135
REMARK   61  A    between atoms: _139  and  _141
REMARK   62  A    between atoms: _141  and  _142
REMARK   63  A    between atoms: _141  and  _144
REMARK   64  A    between atoms: _144  and  _145
REMARK   65  A    between atoms: _150  and  _152
REMARK   66  A    between atoms: _152  and  _153
REMARK   67  A    between atoms: _152  and  _155
REMARK   68  A    between atoms: _155  and  _156
REMARK   69  A    between atoms: _161  and  _163
REMARK   70  A    between atoms: _163  and  _164
REMARK   71  A    between atoms: _167  and  _169
REMARK   72  A    between atoms: _169  and  _170
REMARK   73  A    between atoms: _169  and  _172
REMARK   74  A    between atoms: _172  and  _173
REMARK   75  A    between atoms: _178  and  _180
REMARK   76  A    between atoms: _180  and  _181
REMARK   77  A    between atoms: _184  and  _186
REMARK   78  A    between atoms: _186  and  _187
REMARK   79  A    between atoms: _190  and  _192
REMARK   80  A    between atoms: _192  and  _193
REMARK   81  A    between atoms: _192  and  _195
REMARK   82  A    between atoms: _195  and  _196
REMARK   83  A    between atoms: _201  and  _203
REMARK   84  A    between atoms: _203  and  _204
REMARK   85  A    between atoms: _203  and  _206
REMARK   86  A    between atoms: _206  and  _207
REMARK   87  A    between atoms: _210  and  _212
REMARK   88  A    between atoms: _212  and  _213
REMARK   89  A    between atoms: _215  and  _217
REMARK   90  A    between atoms: _217  and  _218
REMARK   91  A    between atoms: _217  and  _220
REMARK   92  A    between atoms: _220  and  _221
REMARK   93  A    between atoms: _221  and  _222
REMARK   94  A    between atoms: _225  and  _227
REMARK   95  A    between atoms: _227  and  _228
REMARK   96  A    between atoms: _227  and  _230
REMARK   97  A    between atoms: _230  and  _231
REMARK   98  A    between atoms: _234  and  _236
REMARK   99  A    between atoms: _236  and  _237
REMARK  100  A    between atoms: _236  and  _239
REMARK  101  A    between atoms: _239  and  _240
REMARK  102  A    between atoms: _242  and  _244
REMARK  103  A    between atoms: _244  and  _245
REMARK  104  A    between atoms: _244  and  _247
REMARK  105  A    between atoms: _247  and  _248
REMARK  106  A    between atoms: _251  and  _253
REMARK  107  A    between atoms: _253  and  _254
REMARK  108  A    between atoms: _253  and  _256
REMARK  109  A    between atoms: _256  and  _257
REMARK  110  A    between atoms: _257  and  _258
REMARK  111  A    between atoms: _260  and  _262
REMARK  112  A    between atoms: _262  and  _263
REMARK  113  A    between atoms: _266  and  _268
REMARK  114  A    between atoms: _268  and  _269
REMARK  115  A    between atoms: _272  and  _274
REMARK  116  A    between atoms: _274  and  _275
REMARK  117  A    between atoms: _274  and  _277
REMARK  118  A    between atoms: _277  and  _278
REMARK  119  A    between atoms: _281  and  _283
REMARK  120  A    between atoms: _283  and  _284
REMARK  121  A    between atoms: _287  and  _289
REMARK  122  A    between atoms: _289  and  _290
REMARK  123  A    between atoms: _293  and  _295
REMARK  124  A    between atoms: _295  and  _296
REMARK  125  A    between atoms: _298  and  _300
REMARK  126  A    between atoms: _300  and  _301
REMARK  127  A    between atoms: _300  and  _303
REMARK  128  A    between atoms: _303  and  _304
REMARK  129  A    between atoms: _309  and  _311
REMARK  130  A    between atoms: _311  and  _312
REMARK  131  A    between atoms: _311  and  _314
REMARK  132  A    between atoms: _314  and  _315
REMARK  133  A    between atoms: _315  and  _316
REMARK  134  A    between atoms: _319  and  _321
REMARK  135  A    between atoms: _321  and  _322
REMARK  136  A    between atoms: _321  and  _324
REMARK  137  A    between atoms: _324  and  _325
REMARK  138  A    between atoms: _328  and  _330
REMARK  139  A    between atoms: _330  and  _331
REMARK  140  A    between atoms: _330  and  _333
REMARK  141  A    between atoms: _333  and  _334
REMARK  142  A    between atoms: _334  and  _335
REMARK  143  A    between atoms: _335  and  _336
REMARK  144  A    between atoms: _345  and  _347
REMARK  145  A    between atoms: _347  and  _348
REMARK  146  A    between atoms: _351  and  _352
REMARK  147  A    between atoms: _357  and  _359
REMARK  148  A    between atoms: _359  and  _360
REMARK  149  A    between atoms: _359  and  _362
REMARK  150  A    between atoms: _362  and  _363
REMARK  151  A    between atoms: _363  and  _364
REMARK  152  A    between atoms: _366  and  _368
REMARK  153  A    between atoms: _368  and  _369
REMARK  154  A    between atoms: _368  and  _371
REMARK  155  A    between atoms: _371  and  _372
REMARK  156  A    between atoms: _372  and  _373
REMARK  157  A    between atoms: _375  and  _377
REMARK  158  A    between atoms: _377  and  _378
REMARK  159  A    between atoms: _377  and  _380
REMARK  160  A    between atoms: _380  and  _381
REMARK  161  A    between atoms: _386  and  _388
REMARK  162  A    between atoms: _388  and  _389
REMARK  163  A    between atoms: _388  and  _391
REMARK  164  A    between atoms: _391  and  _392
REMARK  165  A    between atoms: _395  and  _397
REMARK  166  A    between atoms: _397  and  _398
REMARK  167  A    between atoms: _397  and  _400
REMARK  168  A    between atoms: _400  and  _401
REMARK  169  A    between atoms: _403  and  _405
REMARK  170  A    between atoms: _405  and  _406
REMARK  171  A    between atoms: _405  and  _408
REMARK  172  A    between atoms: _408  and  _409
REMARK  173  A    between atoms: _409  and  _410
REMARK  174  A    between atoms: _410  and  _411
REMARK  175  A    between atoms: _411  and  _412
REMARK  176  A    between atoms: _416  and  _418
REMARK  177  A    between atoms: _418  and  _419
REMARK  178  A    between atoms: _418  and  _421
REMARK  179  A    between atoms: _421  and  _422
REMARK  180  A    between atoms: _425  and  _427
REMARK  181  A    between atoms: _427  and  _428
REMARK  182  A    between atoms: _427  and  _430
REMARK  183  A    between atoms: _430  and  _431
REMARK  184  A    between atoms: _431  and  _432
REMARK  185  A    between atoms: _435  and  _437
REMARK  186  A    between atoms: _437  and  _438
REMARK  187  A    between atoms: _441  and  _443
REMARK  188  A    between atoms: _443  and  _444
REMARK  189  A    between atoms: _443  and  _446
REMARK  190  A    between atoms: _449  and  _451
REMARK  191  A    between atoms: _451  and  _452
REMARK  192  A    between atoms: _451  and  _454
REMARK  193  A    between atoms: _454  and  _455
REMARK  194  A    between atoms: _457  and  _459
REMARK  195  A    between atoms: _459  and  _460
REMARK  196  A    between atoms: _462  and  _464
REMARK  197  A    between atoms: _464  and  _465
REMARK  198  A    between atoms: _464  and  _467
REMARK  199  A    between atoms: _467  and  _468
REMARK  200  A    between atoms: _473  and  _475
REMARK  201  A    between atoms: _475  and  _476
REMARK  202  A    between atoms: _475  and  _478
REMARK  203  A    between atoms: _478  and  _479
REMARK  204  A    between atoms: _484  and  _485
REMARK  205  A    between atoms: _487  and  _489
REMARK  206  A    between atoms: _489  and  _490
REMARK  207  A    between atoms: _489  and  _492
REMARK  208  A    between atoms: _494  and  _496
REMARK  209  A    between atoms: _496  and  _497
REMARK  210  A    between atoms: _496  and  _499
REMARK  211  A    between atoms: _499  and  _500
REMARK  212  A    between atoms: _503  and  _505
REMARK  213  A    between atoms: _505  and  _506
REMARK  214  A    between atoms: _505  and  _508
REMARK  215  A    between atoms: _508  and  _509
REMARK  216  A    between atoms: _512  and  _514
REMARK  217  A    between atoms: _514  and  _515
REMARK  218  A    between atoms: _514  and  _517
REMARK  219  A    between atoms: _517  and  _518
REMARK  220  A    between atoms: _518  and  _519
REMARK  221  A    between atoms: _519  and  _520
REMARK  222  A    between atoms: _520  and  _521
REMARK  223  A    between atoms: _525  and  _527
REMARK  224  A    between atoms: _527  and  _528
REMARK  225  A    between atoms: _527  and  _530
REMARK  226  A    between atoms: _530  and  _531
REMARK  227  A    between atoms: _531  and  _532
REMARK  228  A    between atoms: _532  and  _533
REMARK  229  A    between atoms: _533  and  _534
REMARK  230  A    between atoms: _538  and  _540
REMARK  231  A    between atoms: _540  and  _541
REMARK  232  A    between atoms: _540  and  _543
REMARK  233  A    between atoms: _543  and  _544
REMARK  234  A    between atoms: _544  and  _545
REMARK  235  A    between atoms: _545  and  _546
REMARK  236  A    between atoms: _555  and  _557
REMARK  237  A    between atoms: _557  and  _558
REMARK  238  A    between atoms: _557  and  _560
REMARK  239  A    between atoms: _560  and  _561
REMARK  240  A    between atoms: _564  and  _566
REMARK  241  A    between atoms: _566  and  _567
REMARK  242  A    between atoms: _570  and  _572
REMARK  243  A    between atoms: _572  and  _573
REMARK  244  A    between atoms: _572  and  _575
REMARK  245  A    between atoms: _575  and  _576
REMARK  246  A    between atoms: _576  and  _577
REMARK                            x       y       z     vdW  Elec       q    Type
REMARK                         _______ _______ _______ _____ _____    ______ ____
ROOT
ATOM      1  NE  ARG A   1       1.627 -14.468  19.148  0.00  0.00    -0.265 N 
ATOM      2  HE  ARG A   1       0.740 -14.093  19.541  0.00  0.00    +0.259 HD
ATOM      3  CZ  ARG A   1       1.557 -15.119  17.988  0.00  0.00    +0.342 C 
ATOM      4  NH2 ARG A   1       2.640 -15.649  17.432  0.00  0.00    -0.292 N 
ATOM      5 HH21 ARG A   1       3.563 -15.559  17.903  0.00  0.00    +0.255 HD
ATOM      6 HH22 ARG A   1       2.565 -16.154  16.526  0.00  0.00    +0.255 HD
ATOM      7  NH1 ARG A   1       0.384 -15.250  17.378  0.00  0.00    -0.292 N 
ATOM      8 HH11 ARG A   1      -0.473 -14.845  17.806  0.00  0.00    +0.255 HD
ATOM      9 HH12 ARG A   1       0.323 -15.757  16.472  0.00  0.00    +0.255 HD
ENDROOT
BRANCH   1  10
ATOM     10  CD  ARG A   1       2.855 -14.237  19.916  0.00  0.00    +0.174 C 
BRANCH  10  11
ATOM     11  CG  ARG A   1       3.078 -15.202  21.065  0.00  0.00    +0.045 C 
BRANCH  11  12
ATOM     12  CB  ARG A   1       4.114 -14.695  22.071  0.00  0.00    +0.029 C 
BRANCH  12  13
ATOM     13  CA  ARG A   1       4.372 -15.628  23.257  0.00  0.00    +0.133 C 
BRANCH  13  14
ATOM     14  N   ARG A   1       5.286 -15.021  24.222  0.00  0.00    -0.239 NA
ATOM     15  H   ARG A   1       6.274 -15.346  24.239  0.00  0.00    +0.142 HD
ENDBRANCH  13  14
BRANCH  13  16
ATOM     16  C   ARG A   1       4.989 -16.936  22.774  0.00  0.00    +0.224 C 
ATOM     17  O   ARG A   1       6.175 -16.990  22.463  0.00  0.00    -0.287 OA
ENDBRANCH  13  16
ENDBRANCH  12  13
ENDBRANCH  11  12
ENDBRANCH  10  11
ENDBRANCH   1  10
TORSDOF 6
REMARK  Name = ../refined-set-2016/3cd7/3cd7_pocket.pdb
REMARK  246 active torsions:
REMARK  status: ('A' for Active; 'I' for Inactive)
REMARK    1  A    between atoms: _1  and  _3
REMARK    2  A    between atoms: _3  and  _4
REMARK    3  A    between atoms: _3  and  _6
REMARK    4  A    between atoms: _6  and  _7
REMARK    5  A    between atoms: _7  and  _8
REMARK    6  A    between atoms: _11  and  _13
REMARK    7  A    between atoms: _13  and  _14
REMARK    8  A    between atoms: _16  and  _18
REMARK    9  A    between atoms: _18  and  _19
REMARK   10  A    between atoms: _18  and  _21
REMARK   11  A    between atoms: _23  and  _25
REMARK   12  A    between atoms: _25  and  _26
REMARK   13  A    between atoms: _25  and  _28
REMARK   14  A    between atoms: _28  and  _29
REMARK   15  A    between atoms: _32  and  _34
REMARK   16  A    between atoms: _34  and  _35
REMARK   17  A    between atoms: _34  and  _37
REMARK   18  A    between atoms: _40  and  _42
REMARK   19  A    between atoms: _42  and  _43
REMARK   20  A    between atoms: _46  and  _48
REMARK   21  A    between atoms: _48  and  _49
REMARK   22  A    between atoms: _48  and  _51
REMARK   23  A    between atoms: _51  and  _52
REMARK   24  A    between atoms: _54  and  _56
REMARK   25  A    between atoms: _56  and  _57
REMARK   26  A    between atoms: _56  and  _59
REMARK   27  A    between atoms: _59  and  _60
REMARK   28  A    between atoms: _63  and  _65
REMARK   29  A    between atoms: _65  and  _66
REMARK   30  A    between atoms: _65  and  _68
REMARK   31  A    between atoms: _68  and  _69
REMARK   32  A    between atoms: _74  and  _76
REMARK   33  A    between atoms: _76  and  _77
REMARK   34  A    between atoms: _76  and  _79
REMARK   35  A    between atoms: _79  and  _80
REMARK   36  A    between atoms: _80  and  _81
REMARK   37  A    between atoms: _81  and  _82
REMARK   38  A    between atoms: _91  and  _93
REMARK   39  A    between atoms: _93  and  _94
REMARK   40  A    between atoms: _96  and  _98
REMARK   41  A    between atoms: _98  and  _99
REMARK   42  A    between atoms: _98  and  _101
REMARK   43  A    between atoms: _104  and  _106
REMARK   44  A    between atoms: _106  and  _107
REMARK   45  A    between atoms: _106  and  _109
REMARK   46  A    between atoms: _109  and  _110
REMARK   47  A    between atoms: _113  and  _115
REMARK   48  A    between atoms: _115  and  _116
REMARK   49  A    between atoms: _115  and  _118
REMARK   50  A    between atoms: _118  and  _119
REMARK   51  A    between atoms: _119  and  _120
REMARK   52  A    between atoms: _120  and  _121
REMARK   53  A    between atoms: _121  and  _122
REMARK   54  A    between atoms: _126  and  _128
REMARK   55  A    between atoms: _128  and  _129
REMARK   56  A    between atoms: _128  and  _131
REMARK   57  A    between atoms: _131  and  _132
REMARK   58  A    between atoms: _132  and  _133
REMARK   59  A    between atoms: _133  and  _134
REMARK   60  A    between atoms: _134  and  _135
REMARK   61  A    between atoms: _139  and  _141
REMARK   62  A    between atoms: _141  and  _142
REMARK   63  A    between atoms: _141  and  _144
REMARK   64  A    between atoms: _144  and  _145
REMARK   65  A    between atoms: _150  and  _152
REMARK   66  A    between atoms: _152  and  _153
REMARK   67  A    between atoms: _152  and  _155
REMARK   68  A    between atoms: _155  and  _156
REMARK   69  A    between atoms: _161  and  _163
REMARK   70  A    between atoms: _163  and  _164
REMARK   71  A    between atoms: _167  and  _169
REMARK   72  A    between atoms: _169  and  _170
REMARK   73  A    between atoms: _169  and  _172
REMARK   74  A    between atoms: _172  and  _173
REMARK   75  A    between atoms: _178  and  _180
REMARK   76  A    between atoms: _180  and  _181
REMARK   77  A    between atoms: _184  and  _186
REMARK   78  A    between atoms: _186  and  _187
REMARK   79  A    between atoms: _190  and  _192
REMARK   80  A    between atoms: _192  and  _193
REMARK   81  A    between atoms: _192  and  _195
REMARK   82  A    between atoms: _195  and  _196
REMARK   83  A    between atoms: _201  and  _203
REMARK   84  A    between atoms: _203  and  _204
REMARK   85  A    between atoms: _203  and  _206
REMARK   86  A    between atoms: _206  and  _207
REMARK   87  A    between atoms: _210  and  _212
REMARK   88  A    between atoms: _212  and  _213
REMARK   89  A    between atoms: _215  and  _217
REMARK   90  A    between atoms: _217  and  _218
REMARK   91  A    between atoms: _217  and  _220
REMARK   92  A    between atoms: _220  and  _221
REMARK   93  A    between atoms: _221  and  _222
REMARK   94  A    between atoms: _225  and  _227
REMARK   95  A    between atoms: _227  and  _228
REMARK   96  A    between atoms: _227  and  _230
REMARK   97  A    between atoms: _230  and  _231
REMARK   98  A    between atoms: _234  and  _236
REMARK   99  A    between atoms: _236  and  _237
REMARK  100  A    between atoms: _236  and  _239
REMARK  101  A    between atoms: _239  and  _240
REMARK  102  A    between atoms: _242  and  _244
REMARK  103  A    between atoms: _244  and  _245
REMARK  104  A    between atoms: _244  and  _247
REMARK  105  A    between atoms: _247  and  _248
REMARK  106  A    between atoms: _251  and  _253
REMARK  107  A    between atoms: _253  and  _254
REMARK  108  A    between atoms: _253  and  _256
REMARK  109  A    between atoms: _256  and  _257
REMARK  110  A    between atoms: _257  and  _258
REMARK  111  A    between atoms: _260  and  _262
REMARK  112  A    between atoms: _262  and  _263
REMARK  113  A    between atoms: _266  and  _268
REMARK  114  A    between atoms: _268  and  _269
REMARK  115  A    between atoms: _272  and  _274
REMARK  116  A    between atoms: _274  and  _275
REMARK  117  A    between atoms: _274  and  _277
REMARK  118  A    between atoms: _277  and  _278
REMARK  119  A    between atoms: _281  and  _283
REMARK  120  A    between atoms: _283  and  _284
REMARK  121  A    between atoms: _287  and  _289
REMARK  122  A    between atoms: _289  and  _290
REMARK  123  A    between atoms: _293  and  _295
REMARK  124  A    between atoms: _295  and  _296
REMARK  125  A    between atoms: _298  and  _300
REMARK  126  A    between atoms: _300  and  _301
REMARK  127  A    between atoms: _300  and  _303
REMARK  128  A    between atoms: _303  and  _304
REMARK  129  A    between atoms: _309  and  _311
REMARK  130  A    between atoms: _311  and  _312
REMARK  131  A    between atoms: _311  and  _314
REMARK  132  A    between atoms: _314  and  _315
REMARK  133  A    between atoms: _315  and  _316
REMARK  134  A    between atoms: _319  and  _321
REMARK  135  A    between atoms: _321  and  _322
REMARK  136  A    between atoms: _321  and  _324
REMARK  137  A    between atoms: _324  and  _325
REMARK  138  A    between atoms: _328  and  _330
REMARK  139  A    between atoms: _330  and  _331
REMARK  140  A    between atoms: _330  and  _333
REMARK  141  A    between atoms: _333  and  _334
REMARK  142  A    between atoms: _334  and  _335
REMARK  143  A    between atoms: _335  and  _336
REMARK  144  A    between atoms: _345  and  _347
REMARK  145  A    between atoms: _347  and  _348
REMARK  146  A    between atoms: _351  and  _352
REMARK  147  A    between atoms: _357  and  _359
REMARK  148  A    between atoms: _359  and  _360
REMARK  149  A    between atoms: _359  and  _362
REMARK  150  A    between atoms: _362  and  _363
REMARK  151  A    between atoms: _363  and  _364
REMARK  152  A    between atoms: _366  and  _368
REMARK  153  A    between atoms: _368  and  _369
REMARK  154  A    between atoms: _368  and  _371
REMARK  155  A    between atoms: _371  and  _372
REMARK  156  A    between atoms: _372  and  _373
REMARK  157  A    between atoms: _375  and  _377
REMARK  158  A    between atoms: _377  and  _378
REMARK  159  A    between atoms: _377  and  _380
REMARK  160  A    between atoms: _380  and  _381
REMARK  161  A    between atoms: _386  and  _388
REMARK  162  A    between atoms: _388  and  _389
REMARK  163  A    between atoms: _388  and  _391
REMARK  164  A    between atoms: _391  and  _392
REMARK  165  A    between atoms: _395  and  _397
REMARK  166  A    between atoms: _397  and  _398
REMARK  167  A    between atoms: _397  and  _400
REMARK  168  A    between atoms: _400  and  _401
REMARK  169  A    between atoms: _403  and  _405
REMARK  170  A    between atoms: _405  and  _406
REMARK  171  A    between atoms: _405  and  _408
REMARK  172  A    between atoms: _408  and  _409
REMARK  173  A    between atoms: _409  and  _410
REMARK  174  A    between atoms: _410  and  _411
REMARK  175  A    between atoms: _411  and  _412
REMARK  176  A    between atoms: _416  and  _418
REMARK  177  A    between atoms: _418  and  _419
REMARK  178  A    between atoms: _418  and  _421
REMARK  179  A    between atoms: _421  and  _422
REMARK  180  A    between atoms: _425  and  _427
REMARK  181  A    between atoms: _427  and  _428
REMARK  182  A    between atoms: _427  and  _430
REMARK  183  A    between atoms: _430  and  _431
REMARK  184  A    between atoms: _431  and  _432
REMARK  185  A    between atoms: _435  and  _437
REMARK  186  A    between atoms: _437  and  _438
REMARK  187  A    between atoms: _441  and  _443
REMARK  188  A    between atoms: _443  and  _444
REMARK  189  A    between atoms: _443  and  _446
REMARK  190  A    between atoms: _449  and  _451
REMARK  191  A    between atoms: _451  and  _452
REMARK  192  A    between atoms: _451  and  _454
REMARK  193  A    between atoms: _454  and  _455
REMARK  194  A    between atoms: _457  and  _459
REMARK  195  A    between atoms: _459  and  _460
REMARK  196  A    between atoms: _462  and  _464
REMARK  197  A    between atoms: _464  and  _465
REMARK  198  A    between atoms: _464  and  _467
REMARK  199  A    between atoms: _467  and  _468
REMARK  200  A    between atoms: _473  and  _475
REMARK  201  A    between atoms: _475  and  _476
REMARK  202  A    between atoms: _475  and  _478
REMARK  203  A    between atoms: _478  and  _479
REMARK  204  A    between atoms: _484  and  _485
REMARK  205  A    between atoms: _487  and  _489
REMARK  206  A    between atoms: _489  and  _490
REMARK  207  A    between atoms: _489  and  _492
REMARK  208  A    between atoms: _494  and  _496
REMARK  209  A    between atoms: _496  and  _497
REMARK  210  A    between atoms: _496  and  _499
REMARK  211  A    between atoms: _499  and  _500
REMARK  212  A    between atoms: _503  and  _505
REMARK  213  A    between atoms: _505  and  _506
REMARK  214  A    between atoms: _505  and  _508
REMARK  215  A    between atoms: _508  and  _509
REMARK  216  A    between atoms: _512  and  _514
REMARK  217  A    between atoms: _514  and  _515
REMARK  218  A    between atoms: _514  and  _517
REMARK  219  A    between atoms: _517  and  _518
REMARK  220  A    between atoms: _518  and  _519
REMARK  221  A    between atoms: _519  and  _520
REMARK  222  A    between atoms: _520  and  _521
REMARK  223  A    between atoms: _525  and  _527
REMARK  224  A    between atoms: _527  and  _528
REMARK  225  A    between atoms: _527  and  _530
REMARK  226  A    between atoms: _530  and  _531
REMARK  227  A    between atoms: _531  and  _532
REMARK  228  A    between atoms: _532  and  _533
REMARK  229  A    between atoms: _533  and  _534
REMARK  230  A    between atoms: _538  and  _540
REMARK  231  A    between atoms: _540  and  _541
REMARK  232  A    between atoms: _540  and  _543
REMARK  233  A    between atoms: _543  and  _544
REMARK  234  A    between atoms: _544  and  _545
REMARK  235  A    between atoms: _545  and  _546
REMARK  236  A    between atoms: _555  and  _557
REMARK  237  A    between atoms: _557  and  _558
REMARK  238  A    between atoms: _557  and  _560
REMARK  239  A    between atoms: _560  and  _561
REMARK  240  A    between atoms: _564  and  _566
REMARK  241  A    between atoms: _566  and  _567
REMARK  242  A    between atoms: _570  and  _572
REMARK  243  A    between atoms: _572  and  _573
REMARK  244  A    between atoms: _572  and  _575
REMARK  245  A    between atoms: _575  and  _576
REMARK  246  A    between atoms: _576  and  _577
REMARK                            x       y       z     vdW  Elec       q    Type
REMARK                         _______ _______ _______ _____ _____    ______ ____
ROOT
ATOM      1  CA  ASP A   1       6.830 -21.210  10.056  0.00  0.00    +0.144 C 
ENDROOT
BRANCH   1   2
ATOM      2  N   ASP A   1       7.185 -22.384  10.831  0.00  0.00    -0.239 NA
ATOM      3  H   ASP A   1       6.835 -22.462  11.807  0.00  0.00    +0.142 HD
ENDBRANCH   1   2
BRANCH   1   4
ATOM      4  C   ASP A   1       8.001 -20.237  10.150  0.00  0.00    +0.225 C 
ATOM      5  O   ASP A   1       8.197 -19.610  11.185  0.00  0.00    -0.287 OA
ENDBRANCH   1   4
BRANCH   1   6
ATOM      6  CB  ASP A   1       5.559 -20.597  10.648  0.00  0.00    +0.139 C 
BRANCH   6   7
ATOM      7  CG  ASP A   1       4.883 -19.620   9.727  0.00  0.00    +0.367 C 
ATOM      8  OD2 ASP A   1       3.653 -19.446   9.759  0.00  0.00    -0.246 OA
ATOM      9  OD1 ASP A   1       5.566 -18.944   8.926  0.00  0.00    -0.246 OA
ENDBRANCH   6   7
ENDBRANCH   1   6
TORSDOF 4
REMARK  Name = ../refined-set-2016/3cd7/3cd7_pocket.pdb
REMARK  246 active torsions:
REMARK  status: ('A' for Active; 'I' for Inactive)
REMARK    1  A    between atoms: _1  and  _3
REMARK    2  A    between atoms: _3  and  _4
REMARK    3  A    between atoms: _3  and  _6
REMARK    4  A    between atoms: _6  and  _7
REMARK    5  A    between atoms: _7  and  _8
REMARK    6  A    between atoms: _11  and  _13
REMARK    7  A    between atoms: _13  and  _14
REMARK    8  A    between atoms: _16  and  _18
REMARK    9  A    between atoms: _18  and  _19
REMARK   10  A    between atoms: _18  and  _21
REMARK   11  A    between atoms: _23  and  _25
REMARK   12  A    between atoms: _25  and  _26
REMARK   13  A    between atoms: _25  and  _28
REMARK   14  A    between atoms: _28  and  _29
REMARK   15  A    between atoms: _32  and  _34
REMARK   16  A    between atoms: _34  and  _35
REMARK   17  A    between atoms: _34  and  _37
REMARK   18  A    between atoms: _40  and  _42
REMARK   19  A    between atoms: _42  and  _43
REMARK   20  A    between atoms: _46  and  _48
REMARK   21  A    between atoms: _48  and  _49
REMARK   22  A    between atoms: _48  and  _51
REMARK   23  A    between atoms: _51  and  _52
REMARK   24  A    between atoms: _54  and  _56
REMARK   25  A    between atoms: _56  and  _57
REMARK   26  A    between atoms: _56  and  _59
REMARK   27  A    between atoms: _59  and  _60
REMARK   28  A    between atoms: _63  and  _65
REMARK   29  A    between atoms: _65  and  _66
REMARK   30  A    between atoms: _65  and  _68
REMARK   31  A    between atoms: _68  and  _69
REMARK   32  A    between atoms: _74  and  _76
REMARK   33  A    between atoms: _76  and  _77
REMARK   34  A    between atoms: _76  and  _79
REMARK   35  A    between atoms: _79  and  _80
REMARK   36  A    between atoms: _80  and  _81
REMARK   37  A    between atoms: _81  and  _82
REMARK   38  A    between atoms: _91  and  _93
REMARK   39  A    between atoms: _93  and  _94
REMARK   40  A    between atoms: _96  and  _98
REMARK   41  A    between atoms: _98  and  _99
REMARK   42  A    between atoms: _98  and  _101
REMARK   43  A    between atoms: _104  and  _106
REMARK   44  A    between atoms: _106  and  _107
REMARK   45  A    between atoms: _106  and  _109
REMARK   46  A    between atoms: _109  and  _110
REMARK   47  A    between atoms: _113  and  _115
REMARK   48  A    between atoms: _115  and  _116
REMARK   49  A    between atoms: _115  and  _118
REMARK   50  A    between atoms: _118  and  _119
REMARK   51  A    between atoms: _119  and  _120
REMARK   52  A    between atoms: _120  and  _121
REMARK   53  A    between atoms: _121  and  _122
REMARK   54  A    between atoms: _126  and  _128
REMARK   55  A    between atoms: _128  and  _129
REMARK   56  A    between atoms: _128  and  _131
REMARK   57  A    between atoms: _131  and  _132
REMARK   58  A    between atoms: _132  and  _133
REMARK   59  A    between atoms: _133  and  _134
REMARK   60  A    between atoms: _134  and  _135
REMARK   61  A    between atoms: _139  and  _141
REMARK   62  A    between atoms: _141  and  _142
REMARK   63  A    between atoms: _141  and  _144
REMARK   64  A    between atoms: _144  and  _145
REMARK   65  A    between atoms: _150  and  _152
REMARK   66  A    between atoms: _152  and  _153
REMARK   67  A    between atoms: _152  and  _155
REMARK   68  A    between atoms: _155  and  _156
REMARK   69  A    between atoms: _161  and  _163
REMARK   70  A    between atoms: _163  and  _164
REMARK   71  A    between atoms: _167  and  _169
REMARK   72  A    between atoms: _169  and  _170
REMARK   73  A    between atoms: _169  and  _172
REMARK   74  A    between atoms: _172  and  _173
REMARK   75  A    between atoms: _178  and  _180
REMARK   76  A    between atoms: _180  and  _181
REMARK   77  A    between atoms: _184  and  _186
REMARK   78  A    between atoms: _186  and  _187
REMARK   79  A    between atoms: _190  and  _192
REMARK   80  A    between atoms: _192  and  _193
REMARK   81  A    between atoms: _192  and  _195
REMARK   82  A    between atoms: _195  and  _196
REMARK   83  A    between atoms: _201  and  _203
REMARK   84  A    between atoms: _203  and  _204
REMARK   85  A    between atoms: _203  and  _206
REMARK   86  A    between atoms: _206  and  _207
REMARK   87  A    between atoms: _210  and  _212
REMARK   88  A    between atoms: _212  and  _213
REMARK   89  A    between atoms: _215  and  _217
REMARK   90  A    between atoms: _217  and  _218
REMARK   91  A    between atoms: _217  and  _220
REMARK   92  A    between atoms: _220  and  _221
REMARK   93  A    between atoms: _221  and  _222
REMARK   94  A    between atoms: _225  and  _227
REMARK   95  A    between atoms: _227  and  _228
REMARK   96  A    between atoms: _227  and  _230
REMARK   97  A    between atoms: _230  and  _231
REMARK   98  A    between atoms: _234  and  _236
REMARK   99  A    between atoms: _236  and  _237
REMARK  100  A    between atoms: _236  and  _239
REMARK  101  A    between atoms: _239  and  _240
REMARK  102  A    between atoms: _242  and  _244
REMARK  103  A    between atoms: _244  and  _245
REMARK  104  A    between atoms: _244  and  _247
REMARK  105  A    between atoms: _247  and  _248
REMARK  106  A    between atoms: _251  and  _253
REMARK  107  A    between atoms: _253  and  _254
REMARK  108  A    between atoms: _253  and  _256
REMARK  109  A    between atoms: _256  and  _257
REMARK  110  A    between atoms: _257  and  _258
REMARK  111  A    between atoms: _260  and  _262
REMARK  112  A    between atoms: _262  and  _263
REMARK  113  A    between atoms: _266  and  _268
REMARK  114  A    between atoms: _268  and  _269
REMARK  115  A    between atoms: _272  and  _274
REMARK  116  A    between atoms: _274  and  _275
REMARK  117  A    between atoms: _274  and  _277
REMARK  118  A    between atoms: _277  and  _278
REMARK  119  A    between atoms: _281  and  _283
REMARK  120  A    between atoms: _283  and  _284
REMARK  121  A    between atoms: _287  and  _289
REMARK  122  A    between atoms: _289  and  _290
REMARK  123  A    between atoms: _293  and  _295
REMARK  124  A    between atoms: _295  and  _296
REMARK  125  A    between atoms: _298  and  _300
REMARK  126  A    between atoms: _300  and  _301
REMARK  127  A    between atoms: _300  and  _303
REMARK  128  A    between atoms: _303  and  _304
REMARK  129  A    between atoms: _309  and  _311
REMARK  130  A    between atoms: _311  and  _312
REMARK  131  A    between atoms: _311  and  _314
REMARK  132  A    between atoms: _314  and  _315
REMARK  133  A    between atoms: _315  and  _316
REMARK  134  A    between atoms: _319  and  _321
REMARK  135  A    between atoms: _321  and  _322
REMARK  136  A    between atoms: _321  and  _324
REMARK  137  A    between atoms: _324  and  _325
REMARK  138  A    between atoms: _328  and  _330
REMARK  139  A    between atoms: _330  and  _331
REMARK  140  A    between atoms: _330  and  _333
REMARK  141  A    between atoms: _333  and  _334
REMARK  142  A    between atoms: _334  and  _335
REMARK  143  A    between atoms: _335  and  _336
REMARK  144  A    between atoms: _345  and  _347
REMARK  145  A    between atoms: _347  and  _348
REMARK  146  A    between atoms: _351  and  _352
REMARK  147  A    between atoms: _357  and  _359
REMARK  148  A    between atoms: _359  and  _360
REMARK  149  A    between atoms: _359  and  _362
REMARK  150  A    between atoms: _362  and  _363
REMARK  151  A    between atoms: _363  and  _364
REMARK  152  A    between atoms: _366  and  _368
REMARK  153  A    between atoms: _368  and  _369
REMARK  154  A    between atoms: _368  and  _371
REMARK  155  A    between atoms: _371  and  _372
REMARK  156  A    between atoms: _372  and  _373
REMARK  157  A    between atoms: _375  and  _377
REMARK  158  A    between atoms: _377  and  _378
REMARK  159  A    between atoms: _377  and  _380
REMARK  160  A    between atoms: _380  and  _381
REMARK  161  A    between atoms: _386  and  _388
REMARK  162  A    between atoms: _388  and  _389
REMARK  163  A    between atoms: _388  and  _391
REMARK  164  A    between atoms: _391  and  _392
REMARK  165  A    between atoms: _395  and  _397
REMARK  166  A    between atoms: _397  and  _398
REMARK  167  A    between atoms: _397  and  _400
REMARK  168  A    between atoms: _400  and  _401
REMARK  169  A    between atoms: _403  and  _405
REMARK  170  A    between atoms: _405  and  _406
REMARK  171  A    between atoms: _405  and  _408
REMARK  172  A    between atoms: _408  and  _409
REMARK  173  A    between atoms: _409  and  _410
REMARK  174  A    between atoms: _410  and  _411
REMARK  175  A    between atoms: _411  and  _412
REMARK  176  A    between atoms: _416  and  _418
REMARK  177  A    between atoms: _418  and  _419
REMARK  178  A    between atoms: _418  and  _421
REMARK  179  A    between atoms: _421  and  _422
REMARK  180  A    between atoms: _425  and  _427
REMARK  181  A    between atoms: _427  and  _428
REMARK  182  A    between atoms: _427  and  _430
REMARK  183  A    between atoms: _430  and  _431
REMARK  184  A    between atoms: _431  and  _432
REMARK  185  A    between atoms: _435  and  _437
REMARK  186  A    between atoms: _437  and  _438
REMARK  187  A    between atoms: _441  and  _443
REMARK  188  A    between atoms: _443  and  _444
REMARK  189  A    between atoms: _443  and  _446
REMARK  190  A    between atoms: _449  and  _451
REMARK  191  A    between atoms: _451  and  _452
REMARK  192  A    between atoms: _451  and  _454
REMARK  193  A    between atoms: _454  and  _455
REMARK  194  A    between atoms: _457  and  _459
REMARK  195  A    between atoms: _459  and  _460
REMARK  196  A    between atoms: _462  and  _464
REMARK  197  A    between atoms: _464  and  _465
REMARK  198  A    between atoms: _464  and  _467
REMARK  199  A    between atoms: _467  and  _468
REMARK  200  A    between atoms: _473  and  _475
REMARK  201  A    between atoms: _475  and  _476
REMARK  202  A    between atoms: _475  and  _478
REMARK  203  A    between atoms: _478  and  _479
REMARK  204  A    between atoms: _484  and  _485
REMARK  205  A    between atoms: _487  and  _489
REMARK  206  A    between atoms: _489  and  _490
REMARK  207  A    between atoms: _489  and  _492
REMARK  208  A    between atoms: _494  and  _496
REMARK  209  A    between atoms: _496  and  _497
REMARK  210  A    between atoms: _496  and  _499
REMARK  211  A    between atoms: _499  and  _500
REMARK  212  A    between atoms: _503  and  _505
REMARK  213  A    between atoms: _505  and  _506
REMARK  214  A    between atoms: _505  and  _508
REMARK  215  A    between atoms: _508  and  _509
REMARK  216  A    between atoms: _512  and  _514
REMARK  217  A    between atoms: _514  and  _515
REMARK  218  A    between atoms: _514  and  _517
REMARK  219  A    between atoms: _517  and  _518
REMARK  220  A    between atoms: _518  and  _519
REMARK  221  A    between atoms: _519  and  _520
REMARK  222  A    between atoms: _520  and  _521
REMARK  223  A    between atoms: _525  and  _527
REMARK  224  A    between atoms: _527  and  _528
REMARK  225  A    between atoms: _527  and  _530
REMARK  226  A    between atoms: _530  and  _531
REMARK  227  A    between atoms: _531  and  _532
REMARK  228  A    between atoms: _532  and  _533
REMARK  229  A    between atoms: _533  and  _534
REMARK  230  A    between atoms: _538  and  _540
REMARK  231  A    between atoms: _540  and  _541
REMARK  232  A    between atoms: _540  and  _543
REMARK  233  A    between atoms: _543  and  _544
REMARK  234  A    between atoms: _544  and  _545
REMARK  235  A    between atoms: _545  and  _546
REMARK  236  A    between atoms: _555  and  _557
REMARK  237  A    between atoms: _557  and  _558
REMARK  238  A    between atoms: _557  and  _560
REMARK  239  A    between atoms: _560  and  _561
REMARK  240  A    between atoms: _564  and  _566
REMARK  241  A    between atoms: _566  and  _567
REMARK  242  A    between atoms: _570  and  _572
REMARK  243  A    between atoms: _572  and  _573
REMARK  244  A    between atoms: _572  and  _575
REMARK  245  A    between atoms: _575  and  _576
REMARK  246  A    between atoms: _576  and  _577
REMARK                            x       y       z     vdW  Elec       q    Type
REMARK                         _______ _______ _______ _____ _____    ______ ____
ROOT
ATOM      1  CA  GLN A   2       7.745 -16.269  12.705  0.00  0.00    +0.137 C 
ENDROOT
BRANCH   1   3
ATOM      2  C   ALA A   1       8.036 -15.582  10.384  0.00  0.00    +0.238 C 
ATOM      3  N   GLN A   2       7.807 -16.546  11.271  0.00  0.00    -0.298 N 
ATOM      4  H   GLN A   2       7.669 -17.521  10.936  0.00  0.00    +0.150 HD
ATOM      5  O   ALA A   1       8.208 -14.411  10.712  0.00  0.00    -0.274 OA
BRANCH   2   6
ATOM      6  CA  ALA A   1       8.109 -15.993   8.907  0.00  0.00    +0.145 C 
ATOM      7  CB  ALA A   1       6.760 -15.768   8.221  0.00  0.00    +0.028 C 
BRANCH   6   8
ATOM      8  N   ALA A   1       8.550 -17.381   8.742  0.00  0.00    -0.238 NA
ATOM      9  H   ALA A   1       7.927 -18.052   8.248  0.00  0.00    +0.142 HD
ENDBRANCH   6   8
ENDBRANCH   2   6
ENDBRANCH   1   3
BRANCH   1  10
ATOM     10  C   GLN A   2       9.118 -16.084  13.380  0.00  0.00    +0.227 C 
ATOM     11  O   GLN A   2       9.192 -15.887  14.591  0.00  0.00    -0.286 OA
ENDBRANCH   1  10
BRANCH   1  12
ATOM     12  CB  GLN A   2       6.924 -17.345  13.419  0.00  0.00    +0.037 C 
BRANCH  12  13
ATOM     13  CG  GLN A   2       5.432 -17.251  13.130  0.00  0.00    +0.087 C 
BRANCH  13  14
ATOM     14  CD  GLN A   2       4.623 -18.215  13.960  0.00  0.00    +0.219 C 
ATOM     15  NE2 GLN A   2       3.424 -17.799  14.365  0.00  0.00    -0.329 N 
ATOM     16 HE21 GLN A   2       2.821 -18.426  14.935  0.00  0.00    +0.145 HD
ATOM     17 HE22 GLN A   2       3.091 -16.847  14.111  0.00  0.00    +0.145 HD
ATOM     18  OE1 GLN A   2       5.072 -19.331  14.229  0.00  0.00    -0.275 OA
ENDBRANCH  13  14
ENDBRANCH  12  13
ENDBRANCH   1  12
TORSDOF 7
REMARK  Name = ../refined-set-2016/3cd7/3cd7_pocket.pdb
REMARK  246 active torsions:
REMARK  status: ('A' for Active; 'I' for Inactive)
REMARK    1  A    between atoms: _1  and  _3
REMARK    2  A    between atoms: _3  and  _4
REMARK    3  A    between atoms: _3  and  _6
REMARK    4  A    between atoms: _6  and  _7
REMARK    5  A    between atoms: _7  and  _8
REMARK    6  A    between atoms: _11  and  _13
REMARK    7  A    between atoms: _13  and  _14
REMARK    8  A    between atoms: _16  and  _18
REMARK    9  A    between atoms: _18  and  _19
REMARK   10  A    between atoms: _18  and  _21
REMARK   11  A    between atoms: _23  and  _25
REMARK   12  A    between atoms: _25  and  _26
REMARK   13  A    between atoms: _25  and  _28
REMARK   14  A    between atoms: _28  and  _29
REMARK   15  A    between atoms: _32  and  _34
REMARK   16  A    between atoms: _34  and  _35
REMARK   17  A    between atoms: _34  and  _37
REMARK   18  A    between atoms: _40  and  _42
REMARK   19  A    between atoms: _42  and  _43
REMARK   20  A    between atoms: _46  and  _48
REMARK   21  A    between atoms: _48  and  _49
REMARK   22  A    between atoms: _48  and  _51
REMARK   23  A    between atoms: _51  and  _52
REMARK   24  A    between atoms: _54  and  _56
REMARK   25  A    between atoms: _56  and  _57
REMARK   26  A    between atoms: _56  and  _59
REMARK   27  A    between atoms: _59  and  _60
REMARK   28  A    between atoms: _63  and  _65
REMARK   29  A    between atoms: _65  and  _66
REMARK   30  A    between atoms: _65  and  _68
REMARK   31  A    between atoms: _68  and  _69
REMARK   32  A    between atoms: _74  and  _76
REMARK   33  A    between atoms: _76  and  _77
REMARK   34  A    between atoms: _76  and  _79
REMARK   35  A    between atoms: _79  and  _80
REMARK   36  A    between atoms: _80  and  _81
REMARK   37  A    between atoms: _81  and  _82
REMARK   38  A    between atoms: _91  and  _93
REMARK   39  A    between atoms: _93  and  _94
REMARK   40  A    between atoms: _96  and  _98
REMARK   41  A    between atoms: _98  and  _99
REMARK   42  A    between atoms: _98  and  _101
REMARK   43  A    between atoms: _104  and  _106
REMARK   44  A    between atoms: _106  and  _107
REMARK   45  A    between atoms: _106  and  _109
REMARK   46  A    between atoms: _109  and  _110
REMARK   47  A    between atoms: _113  and  _115
REMARK   48  A    between atoms: _115  and  _116
REMARK   49  A    between atoms: _115  and  _118
REMARK   50  A    between atoms: _118  and  _119
REMARK   51  A    between atoms: _119  and  _120
REMARK   52  A    between atoms: _120  and  _121
REMARK   53  A    between atoms: _121  and  _122
REMARK   54  A    between atoms: _126  and  _128
REMARK   55  A    between atoms: _128  and  _129
REMARK   56  A    between atoms: _128  and  _131
REMARK   57  A    between atoms: _131  and  _132
REMARK   58  A    between atoms: _132  and  _133
REMARK   59  A    between atoms: _133  and  _134
REMARK   60  A    between atoms: _134  and  _135
REMARK   61  A    between atoms: _139  and  _141
REMARK   62  A    between atoms: _141  and  _142
REMARK   63  A    between atoms: _141  and  _144
REMARK   64  A    between atoms: _144  and  _145
REMARK   65  A    between atoms: _150  and  _152
REMARK   66  A    between atoms: _152  and  _153
REMARK   67  A    between atoms: _152  and  _155
REMARK   68  A    between atoms: _155  and  _156
REMARK   69  A    between atoms: _161  and  _163
REMARK   70  A    between atoms: _163  and  _164
REMARK   71  A    between atoms: _167  and  _169
REMARK   72  A    between atoms: _169  and  _170
REMARK   73  A    between atoms: _169  and  _172
REMARK   74  A    between atoms: _172  and  _173
REMARK   75  A    between atoms: _178  and  _180
REMARK   76  A    between atoms: _180  and  _181
REMARK   77  A    between atoms: _184  and  _186
REMARK   78  A    between atoms: _186  and  _187
REMARK   79  A    between atoms: _190  and  _192
REMARK   80  A    between atoms: _192  and  _193
REMARK   81  A    between atoms: _192  and  _195
REMARK   82  A    between atoms: _195  and  _196
REMARK   83  A    between atoms: _201  and  _203
REMARK   84  A    between atoms: _203  and  _204
REMARK   85  A    between atoms: _203  and  _206
REMARK   86  A    between atoms: _206  and  _207
REMARK   87  A    between atoms: _210  and  _212
REMARK   88  A    between atoms: _212  and  _213
REMARK   89  A    between atoms: _215  and  _217
REMARK   90  A    between atoms: _217  and  _218
REMARK   91  A    between atoms: _217  and  _220
REMARK   92  A    between atoms: _220  and  _221
REMARK   93  A    between atoms: _221  and  _222
REMARK   94  A    between atoms: _225  and  _227
REMARK   95  A    between atoms: _227  and  _228
REMARK   96  A    between atoms: _227  and  _230
REMARK   97  A    between atoms: _230  and  _231
REMARK   98  A    between atoms: _234  and  _236
REMARK   99  A    between atoms: _236  and  _237
REMARK  100  A    between atoms: _236  and  _239
REMARK  101  A    between atoms: _239  and  _240
REMARK  102  A    between atoms: _242  and  _244
REMARK  103  A    between atoms: _244  and  _245
REMARK  104  A    between atoms: _244  and  _247
REMARK  105  A    between atoms: _247  and  _248
REMARK  106  A    between atoms: _251  and  _253
REMARK  107  A    between atoms: _253  and  _254
REMARK  108  A    between atoms: _253  and  _256
REMARK  109  A    between atoms: _256  and  _257
REMARK  110  A    between atoms: _257  and  _258
REMARK  111  A    between atoms: _260  and  _262
REMARK  112  A    between atoms: _262  and  _263
REMARK  113  A    between atoms: _266  and  _268
REMARK  114  A    between atoms: _268  and  _269
REMARK  115  A    between atoms: _272  and  _274
REMARK  116  A    between atoms: _274  and  _275
REMARK  117  A    between atoms: _274  and  _277
REMARK  118  A    between atoms: _277  and  _278
REMARK  119  A    between atoms: _281  and  _283
REMARK  120  A    between atoms: _283  and  _284
REMARK  121  A    between atoms: _287  and  _289
REMARK  122  A    between atoms: _289  and  _290
REMARK  123  A    between atoms: _293  and  _295
REMARK  124  A    between atoms: _295  and  _296
REMARK  125  A    between atoms: _298  and  _300
REMARK  126  A    between atoms: _300  and  _301
REMARK  127  A    between atoms: _300  and  _303
REMARK  128  A    between atoms: _303  and  _304
REMARK  129  A    between atoms: _309  and  _311
REMARK  130  A    between atoms: _311  and  _312
REMARK  131  A    between atoms: _311  and  _314
REMARK  132  A    between atoms: _314  and  _315
REMARK  133  A    between atoms: _315  and  _316
REMARK  134  A    between atoms: _319  and  _321
REMARK  135  A    between atoms: _321  and  _322
REMARK  136  A    between atoms: _321  and  _324
REMARK  137  A    between atoms: _324  and  _325
REMARK  138  A    between atoms: _328  and  _330
REMARK  139  A    between atoms: _330  and  _331
REMARK  140  A    between atoms: _330  and  _333
REMARK  141  A    between atoms: _333  and  _334
REMARK  142  A    between atoms: _334  and  _335
REMARK  143  A    between atoms: _335  and  _336
REMARK  144  A    between atoms: _345  and  _347
REMARK  145  A    between atoms: _347  and  _348
REMARK  146  A    between atoms: _351  and  _352
REMARK  147  A    between atoms: _357  and  _359
REMARK  148  A    between atoms: _359  and  _360
REMARK  149  A    between atoms: _359  and  _362
REMARK  150  A    between atoms: _362  and  _363
REMARK  151  A    between atoms: _363  and  _364
REMARK  152  A    between atoms: _366  and  _368
REMARK  153  A    between atoms: _368  and  _369
REMARK  154  A    between atoms: _368  and  _371
REMARK  155  A    between atoms: _371  and  _372
REMARK  156  A    between atoms: _372  and  _373
REMARK  157  A    between atoms: _375  and  _377
REMARK  158  A    between atoms: _377  and  _378
REMARK  159  A    between atoms: _377  and  _380
REMARK  160  A    between atoms: _380  and  _381
REMARK  161  A    between atoms: _386  and  _388
REMARK  162  A    between atoms: _388  and  _389
REMARK  163  A    between atoms: _388  and  _391
REMARK  164  A    between atoms: _391  and  _392
REMARK  165  A    between atoms: _395  and  _397
REMARK  166  A    between atoms: _397  and  _398
REMARK  167  A    between atoms: _397  and  _400
REMARK  168  A    between atoms: _400  and  _401
REMARK  169  A    between atoms: _403  and  _405
REMARK  170  A    between atoms: _405  and  _406
REMARK  171  A    between atoms: _405  and  _408
REMARK  172  A    between atoms: _408  and  _409
REMARK  173  A    between atoms: _409  and  _410
REMARK  174  A    between atoms: _410  and  _411
REMARK  175  A    between atoms: _411  and  _412
REMARK  176  A    between atoms: _416  and  _418
REMARK  177  A    between atoms: _418  and  _419
REMARK  178  A    between atoms: _418  and  _421
REMARK  179  A    between atoms: _421  and  _422
REMARK  180  A    between atoms: _425  and  _427
REMARK  181  A    between atoms: _427  and  _428
REMARK  182  A    between atoms: _427  and  _430
REMARK  183  A    between atoms: _430  and  _431
REMARK  184  A    between atoms: _431  and  _432
REMARK  185  A    between atoms: _435  and  _437
REMARK  186  A    between atoms: _437  and  _438
REMARK  187  A    between atoms: _441  and  _443
REMARK  188  A    between atoms: _443  and  _444
REMARK  189  A    between atoms: _443  and  _446
REMARK  190  A    between atoms: _449  and  _451
REMARK  191  A    between atoms: _451  and  _452
REMARK  192  A    between atoms: _451  and  _454
REMARK  193  A    between atoms: _454  and  _455
REMARK  194  A    between atoms: _457  and  _459
REMARK  195  A    between atoms: _459  and  _460
REMARK  196  A    between atoms: _462  and  _464
REMARK  197  A    between atoms: _464  and  _465
REMARK  198  A    between atoms: _464  and  _467
REMARK  199  A    between atoms: _467  and  _468
REMARK  200  A    between atoms: _473  and  _475
REMARK  201  A    between atoms: _475  and  _476
REMARK  202  A    between atoms: _475  and  _478
REMARK  203  A    between atoms: _478  and  _479
REMARK  204  A    between atoms: _484  and  _485
REMARK  205  A    between atoms: _487  and  _489
REMARK  206  A    between atoms: _489  and  _490
REMARK  207  A    between atoms: _489  and  _492
REMARK  208  A    between atoms: _494  and  _496
REMARK  209  A    between atoms: _496  and  _497
REMARK  210  A    between atoms: _496  and  _499
REMARK  211  A    between atoms: _499  and  _500
REMARK  212  A    between atoms: _503  and  _505
REMARK  213  A    between atoms: _505  and  _506
REMARK  214  A    between atoms: _505  and  _508
REMARK  215  A    between atoms: _508  and  _509
REMARK  216  A    between atoms: _512  and  _514
REMARK  217  A    between atoms: _514  and  _515
REMARK  218  A    between atoms: _514  and  _517
REMARK  219  A    between atoms: _517  and  _518
REMARK  220  A    between atoms: _518  and  _519
REMARK  221  A    between atoms: _519  and  _520
REMARK  222  A    between atoms: _520  and  _521
REMARK  223  A    between atoms: _525  and  _527
REMARK  224  A    between atoms: _527  and  _528
REMARK  225  A    between atoms: _527  and  _530
REMARK  226  A    between atoms: _530  and  _531
REMARK  227  A    between atoms: _531  and  _532
REMARK  228  A    between atoms: _532  and  _533
REMARK  229  A    between atoms: _533  and  _534
REMARK  230  A    between atoms: _538  and  _540
REMARK  231  A    between atoms: _540  and  _541
REMARK  232  A    between atoms: _540  and  _543
REMARK  233  A    between atoms: _543  and  _544
REMARK  234  A    between atoms: _544  and  _545
REMARK  235  A    between atoms: _545  and  _546
REMARK  236  A    between atoms: _555  and  _557
REMARK  237  A    between atoms: _557  and  _558
REMARK  238  A    between atoms: _557  and  _560
REMARK  239  A    between atoms: _560  and  _561
REMARK  240  A    between atoms: _564  and  _566
REMARK  241  A    between atoms: _566  and  _567
REMARK  242  A    between atoms: _570  and  _572
REMARK  243  A    between atoms: _572  and  _573
REMARK  244  A    between atoms: _572  and  _575
REMARK  245  A    between atoms: _575  and  _576
REMARK  246  A    between atoms: _576  and  _577
REMARK                            x       y       z     vdW  Elec       q    Type
REMARK                         _______ _______ _______ _____ _____    ______ ____
ROOT
ATOM      1  O   HOH     1       5.062  -8.658   8.961  0.00  0.00    +0.000 OA
ENDROOT
TORSDOF 0
REMARK  Name = ../refined-set-2016/3cd7/3cd7_pocket.pdb
REMARK  246 active torsions:
REMARK  status: ('A' for Active; 'I' for Inactive)
REMARK    1  A    between atoms: _1  and  _3
REMARK    2  A    between atoms: _3  and  _4
REMARK    3  A    between atoms: _3  and  _6
REMARK    4  A    between atoms: _6  and  _7
REMARK    5  A    between atoms: _7  and  _8
REMARK    6  A    between atoms: _11  and  _13
REMARK    7  A    between atoms: _13  and  _14
REMARK    8  A    between atoms: _16  and  _18
REMARK    9  A    between atoms: _18  and  _19
REMARK   10  A    between atoms: _18  and  _21
REMARK   11  A    between atoms: _23  and  _25
REMARK   12  A    between atoms: _25  and  _26
REMARK   13  A    between atoms: _25  and  _28
REMARK   14  A    between atoms: _28  and  _29
REMARK   15  A    between atoms: _32  and  _34
REMARK   16  A    between atoms: _34  and  _35
REMARK   17  A    between atoms: _34  and  _37
REMARK   18  A    between atoms: _40  and  _42
REMARK   19  A    between atoms: _42  and  _43
REMARK   20  A    between atoms: _46  and  _48
REMARK   21  A    between atoms: _48  and  _49
REMARK   22  A    between atoms: _48  and  _51
REMARK   23  A    between atoms: _51  and  _52
REMARK   24  A    between atoms: _54  and  _56
REMARK   25  A    between atoms: _56  and  _57
REMARK   26  A    between atoms: _56  and  _59
REMARK   27  A    between atoms: _59  and  _60
REMARK   28  A    between atoms: _63  and  _65
REMARK   29  A    between atoms: _65  and  _66
REMARK   30  A    between atoms: _65  and  _68
REMARK   31  A    between atoms: _68  and  _69
REMARK   32  A    between atoms: _74  and  _76
REMARK   33  A    between atoms: _76  and  _77
REMARK   34  A    between atoms: _76  and  _79
REMARK   35  A    between atoms: _79  and  _80
REMARK   36  A    between atoms: _80  and  _81
REMARK   37  A    between atoms: _81  and  _82
REMARK   38  A    between atoms: _91  and  _93
REMARK   39  A    between atoms: _93  and  _94
REMARK   40  A    between atoms: _96  and  _98
REMARK   41  A    between atoms: _98  and  _99
REMARK   42  A    between atoms: _98  and  _101
REMARK   43  A    between atoms: _104  and  _106
REMARK   44  A    between atoms: _106  and  _107
REMARK   45  A    between atoms: _106  and  _109
REMARK   46  A    between atoms: _109  and  _110
REMARK   47  A    between atoms: _113  and  _115
REMARK   48  A    between atoms: _115  and  _116
REMARK   49  A    between atoms: _115  and  _118
REMARK   50  A    between atoms: _118  and  _119
REMARK   51  A    between atoms: _119  and  _120
REMARK   52  A    between atoms: _120  and  _121
REMARK   53  A    between atoms: _121  and  _122
REMARK   54  A    between atoms: _126  and  _128
REMARK   55  A    between atoms: _128  and  _129
REMARK   56  A    between atoms: _128  and  _131
REMARK   57  A    between atoms: _131  and  _132
REMARK   58  A    between atoms: _132  and  _133
REMARK   59  A    between atoms: _133  and  _134
REMARK   60  A    between atoms: _134  and  _135
REMARK   61  A    between atoms: _139  and  _141
REMARK   62  A    between atoms: _141  and  _142
REMARK   63  A    between atoms: _141  and  _144
REMARK   64  A    between atoms: _144  and  _145
REMARK   65  A    between atoms: _150  and  _152
REMARK   66  A    between atoms: _152  and  _153
REMARK   67  A    between atoms: _152  and  _155
REMARK   68  A    between atoms: _155  and  _156
REMARK   69  A    between atoms: _161  and  _163
REMARK   70  A    between atoms: _163  and  _164
REMARK   71  A    between atoms: _167  and  _169
REMARK   72  A    between atoms: _169  and  _170
REMARK   73  A    between atoms: _169  and  _172
REMARK   74  A    between atoms: _172  and  _173
REMARK   75  A    between atoms: _178  and  _180
REMARK   76  A    between atoms: _180  and  _181
REMARK   77  A    between atoms: _184  and  _186
REMARK   78  A    between atoms: _186  and  _187
REMARK   79  A    between atoms: _190  and  _192
REMARK   80  A    between atoms: _192  and  _193
REMARK   81  A    between atoms: _192  and  _195
REMARK   82  A    between atoms: _195  and  _196
REMARK   83  A    between atoms: _201  and  _203
REMARK   84  A    between atoms: _203  and  _204
REMARK   85  A    between atoms: _203  and  _206
REMARK   86  A    between atoms: _206  and  _207
REMARK   87  A    between atoms: _210  and  _212
REMARK   88  A    between atoms: _212  and  _213
REMARK   89  A    between atoms: _215  and  _217
REMARK   90  A    between atoms: _217  and  _218
REMARK   91  A    between atoms: _217  and  _220
REMARK   92  A    between atoms: _220  and  _221
REMARK   93  A    between atoms: _221  and  _222
REMARK   94  A    between atoms: _225  and  _227
REMARK   95  A    between atoms: _227  and  _228
REMARK   96  A    between atoms: _227  and  _230
REMARK   97  A    between atoms: _230  and  _231
REMARK   98  A    between atoms: _234  and  _236
REMARK   99  A    between atoms: _236  and  _237
REMARK  100  A    between atoms: _236  and  _239
REMARK  101  A    between atoms: _239  and  _240
REMARK  102  A    between atoms: _242  and  _244
REMARK  103  A    between atoms: _244  and  _245
REMARK  104  A    between atoms: _244  and  _247
REMARK  105  A    between atoms: _247  and  _248
REMARK  106  A    between atoms: _251  and  _253
REMARK  107  A    between atoms: _253  and  _254
REMARK  108  A    between atoms: _253  and  _256
REMARK  109  A    between atoms: _256  and  _257
REMARK  110  A    between atoms: _257  and  _258
REMARK  111  A    between atoms: _260  and  _262
REMARK  112  A    between atoms: _262  and  _263
REMARK  113  A    between atoms: _266  and  _268
REMARK  114  A    between atoms: _268  and  _269
REMARK  115  A    between atoms: _272  and  _274
REMARK  116  A    between atoms: _274  and  _275
REMARK  117  A    between atoms: _274  and  _277
REMARK  118  A    between atoms: _277  and  _278
REMARK  119  A    between atoms: _281  and  _283
REMARK  120  A    between atoms: _283  and  _284
REMARK  121  A    between atoms: _287  and  _289
REMARK  122  A    between atoms: _289  and  _290
REMARK  123  A    between atoms: _293  and  _295
REMARK  124  A    between atoms: _295  and  _296
REMARK  125  A    between atoms: _298  and  _300
REMARK  126  A    between atoms: _300  and  _301
REMARK  127  A    between atoms: _300  and  _303
REMARK  128  A    between atoms: _303  and  _304
REMARK  129  A    between atoms: _309  and  _311
REMARK  130  A    between atoms: _311  and  _312
REMARK  131  A    between atoms: _311  and  _314
REMARK  132  A    between atoms: _314  and  _315
REMARK  133  A    between atoms: _315  and  _316
REMARK  134  A    between atoms: _319  and  _321
REMARK  135  A    between atoms: _321  and  _322
REMARK  136  A    between atoms: _321  and  _324
REMARK  137  A    between atoms: _324  and  _325
REMARK  138  A    between atoms: _328  and  _330
REMARK  139  A    between atoms: _330  and  _331
REMARK  140  A    between atoms: _330  and  _333
REMARK  141  A    between atoms: _333  and  _334
REMARK  142  A    between atoms: _334  and  _335
REMARK  143  A    between atoms: _335  and  _336
REMARK  144  A    between atoms: _345  and  _347
REMARK  145  A    between atoms: _347  and  _348
REMARK  146  A    between atoms: _351  and  _352
REMARK  147  A    between atoms: _357  and  _359
REMARK  148  A    between atoms: _359  and  _360
REMARK  149  A    between atoms: _359  and  _362
REMARK  150  A    between atoms: _362  and  _363
REMARK  151  A    between atoms: _363  and  _364
REMARK  152  A    between atoms: _366  and  _368
REMARK  153  A    between atoms: _368  and  _369
REMARK  154  A    between atoms: _368  and  _371
REMARK  155  A    between atoms: _371  and  _372
REMARK  156  A    between atoms: _372  and  _373
REMARK  157  A    between atoms: _375  and  _377
REMARK  158  A    between atoms: _377  and  _378
REMARK  159  A    between atoms: _377  and  _380
REMARK  160  A    between atoms: _380  and  _381
REMARK  161  A    between atoms: _386  and  _388
REMARK  162  A    between atoms: _388  and  _389
REMARK  163  A    between atoms: _388  and  _391
REMARK  164  A    between atoms: _391  and  _392
REMARK  165  A    between atoms: _395  and  _397
REMARK  166  A    between atoms: _397  and  _398
REMARK  167  A    between atoms: _397  and  _400
REMARK  168  A    between atoms: _400  and  _401
REMARK  169  A    between atoms: _403  and  _405
REMARK  170  A    between atoms: _405  and  _406
REMARK  171  A    between atoms: _405  and  _408
REMARK  172  A    between atoms: _408  and  _409
REMARK  173  A    between atoms: _409  and  _410
REMARK  174  A    between atoms: _410  and  _411
REMARK  175  A    between atoms: _411  and  _412
REMARK  176  A    between atoms: _416  and  _418
REMARK  177  A    between atoms: _418  and  _419
REMARK  178  A    between atoms: _418  and  _421
REMARK  179  A    between atoms: _421  and  _422
REMARK  180  A    between atoms: _425  and  _427
REMARK  181  A    between atoms: _427  and  _428
REMARK  182  A    between atoms: _427  and  _430
REMARK  183  A    between atoms: _430  and  _431
REMARK  184  A    between atoms: _431  and  _432
REMARK  185  A    between atoms: _435  and  _437
REMARK  186  A    between atoms: _437  and  _438
REMARK  187  A    between atoms: _441  and  _443
REMARK  188  A    between atoms: _443  and  _444
REMARK  189  A    between atoms: _443  and  _446
REMARK  190  A    between atoms: _449  and  _451
REMARK  191  A    between atoms: _451  and  _452
REMARK  192  A    between atoms: _451  and  _454
REMARK  193  A    between atoms: _454  and  _455
REMARK  194  A    between atoms: _457  and  _459
REMARK  195  A    between atoms: _459  and  _460
REMARK  196  A    between atoms: _462  and  _464
REMARK  197  A    between atoms: _464  and  _465
REMARK  198  A    between atoms: _464  and  _467
REMARK  199  A    between atoms: _467  and  _468
REMARK  200  A    between atoms: _473  and  _475
REMARK  201  A    between atoms: _475  and  _476
REMARK  202  A    between atoms: _475  and  _478
REMARK  203  A    between atoms: _478  and  _479
REMARK  204  A    between atoms: _484  and  _485
REMARK  205  A    between atoms: _487  and  _489
REMARK  206  A    between atoms: _489  and  _490
REMARK  207  A    between atoms: _489  and  _492
REMARK  208  A    between atoms: _494  and  _496
REMARK  209  A    between atoms: _496  and  _497
REMARK  210  A    between atoms: _496  and  _499
REMARK  211  A    between atoms: _499  and  _500
REMARK  212  A    between atoms: _503  and  _505
REMARK  213  A    between atoms: _505  and  _506
REMARK  214  A    between atoms: _505  and  _508
REMARK  215  A    between atoms: _508  and  _509
REMARK  216  A    between atoms: _512  and  _514
REMARK  217  A    between atoms: _514  and  _515
REMARK  218  A    between atoms: _514  and  _517
REMARK  219  A    between atoms: _517  and  _518
REMARK  220  A    between atoms: _518  and  _519
REMARK  221  A    between atoms: _519  and  _520
REMARK  222  A    between atoms: _520  and  _521
REMARK  223  A    between atoms: _525  and  _527
REMARK  224  A    between atoms: _527  and  _528
REMARK  225  A    between atoms: _527  and  _530
REMARK  226  A    between atoms: _530  and  _531
REMARK  227  A    between atoms: _531  and  _532
REMARK  228  A    between atoms: _532  and  _533
REMARK  229  A    between atoms: _533  and  _534
REMARK  230  A    between atoms: _538  and  _540
REMARK  231  A    between atoms: _540  and  _541
REMARK  232  A    between atoms: _540  and  _543
REMARK  233  A    between atoms: _543  and  _544
REMARK  234  A    between atoms: _544  and  _545
REMARK  235  A    between atoms: _545  and  _546
REMARK  236  A    between atoms: _555  and  _557
REMARK  237  A    between atoms: _557  and  _558
REMARK  238  A    between atoms: _557  and  _560
REMARK  239  A    between atoms: _560  and  _561
REMARK  240  A    between atoms: _564  and  _566
REMARK  241  A    between atoms: _566  and  _567
REMARK  242  A    between atoms: _570  and  _572
REMARK  243  A    between atoms: _572  and  _573
REMARK  244  A    between atoms: _572  and  _575
REMARK  245  A    between atoms: _575  and  _576
REMARK  246  A    between atoms: _576  and  _577
REMARK                            x       y       z     vdW  Elec       q    Type
REMARK                         _______ _______ _______ _____ _____    ______ ____
ROOT
ATOM      1  O   HOH     1       4.406 -18.656   6.295  0.00  0.00    +0.000 OA
ENDROOT
TORSDOF 0
REMARK  Name = ../refined-set-2016/3cd7/3cd7_pocket.pdb
REMARK  246 active torsions:
REMARK  status: ('A' for Active; 'I' for Inactive)
REMARK    1  A    between atoms: _1  and  _3
REMARK    2  A    between atoms: _3  and  _4
REMARK    3  A    between atoms: _3  and  _6
REMARK    4  A    between atoms: _6  and  _7
REMARK    5  A    between atoms: _7  and  _8
REMARK    6  A    between atoms: _11  and  _13
REMARK    7  A    between atoms: _13  and  _14
REMARK    8  A    between atoms: _16  and  _18
REMARK    9  A    between atoms: _18  and  _19
REMARK   10  A    between atoms: _18  and  _21
REMARK   11  A    between atoms: _23  and  _25
REMARK   12  A    between atoms: _25  and  _26
REMARK   13  A    between atoms: _25  and  _28
REMARK   14  A    between atoms: _28  and  _29
REMARK   15  A    between atoms: _32  and  _34
REMARK   16  A    between atoms: _34  and  _35
REMARK   17  A    between atoms: _34  and  _37
REMARK   18  A    between atoms: _40  and  _42
REMARK   19  A    between atoms: _42  and  _43
REMARK   20  A    between atoms: _46  and  _48
REMARK   21  A    between atoms: _48  and  _49
REMARK   22  A    between atoms: _48  and  _51
REMARK   23  A    between atoms: _51  and  _52
REMARK   24  A    between atoms: _54  and  _56
REMARK   25  A    between atoms: _56  and  _57
REMARK   26  A    between atoms: _56  and  _59
REMARK   27  A    between atoms: _59  and  _60
REMARK   28  A    between atoms: _63  and  _65
REMARK   29  A    between atoms: _65  and  _66
REMARK   30  A    between atoms: _65  and  _68
REMARK   31  A    between atoms: _68  and  _69
REMARK   32  A    between atoms: _74  and  _76
REMARK   33  A    between atoms: _76  and  _77
REMARK   34  A    between atoms: _76  and  _79
REMARK   35  A    between atoms: _79  and  _80
REMARK   36  A    between atoms: _80  and  _81
REMARK   37  A    between atoms: _81  and  _82
REMARK   38  A    between atoms: _91  and  _93
REMARK   39  A    between atoms: _93  and  _94
REMARK   40  A    between atoms: _96  and  _98
REMARK   41  A    between atoms: _98  and  _99
REMARK   42  A    between atoms: _98  and  _101
REMARK   43  A    between atoms: _104  and  _106
REMARK   44  A    between atoms: _106  and  _107
REMARK   45  A    between atoms: _106  and  _109
REMARK   46  A    between atoms: _109  and  _110
REMARK   47  A    between atoms: _113  and  _115
REMARK   48  A    between atoms: _115  and  _116
REMARK   49  A    between atoms: _115  and  _118
REMARK   50  A    between atoms: _118  and  _119
REMARK   51  A    between atoms: _119  and  _120
REMARK   52  A    between atoms: _120  and  _121
REMARK   53  A    between atoms: _121  and  _122
REMARK   54  A    between atoms: _126  and  _128
REMARK   55  A    between atoms: _128  and  _129
REMARK   56  A    between atoms: _128  and  _131
REMARK   57  A    between atoms: _131  and  _132
REMARK   58  A    between atoms: _132  and  _133
REMARK   59  A    between atoms: _133  and  _134
REMARK   60  A    between atoms: _134  and  _135
REMARK   61  A    between atoms: _139  and  _141
REMARK   62  A    between atoms: _141  and  _142
REMARK   63  A    between atoms: _141  and  _144
REMARK   64  A    between atoms: _144  and  _145
REMARK   65  A    between atoms: _150  and  _152
REMARK   66  A    between atoms: _152  and  _153
REMARK   67  A    between atoms: _152  and  _155
REMARK   68  A    between atoms: _155  and  _156
REMARK   69  A    between atoms: _161  and  _163
REMARK   70  A    between atoms: _163  and  _164
REMARK   71  A    between atoms: _167  and  _169
REMARK   72  A    between atoms: _169  and  _170
REMARK   73  A    between atoms: _169  and  _172
REMARK   74  A    between atoms: _172  and  _173
REMARK   75  A    between atoms: _178  and  _180
REMARK   76  A    between atoms: _180  and  _181
REMARK   77  A    between atoms: _184  and  _186
REMARK   78  A    between atoms: _186  and  _187
REMARK   79  A    between atoms: _190  and  _192
REMARK   80  A    between atoms: _192  and  _193
REMARK   81  A    between atoms: _192  and  _195
REMARK   82  A    between atoms: _195  and  _196
REMARK   83  A    between atoms: _201  and  _203
REMARK   84  A    between atoms: _203  and  _204
REMARK   85  A    between atoms: _203  and  _206
REMARK   86  A    between atoms: _206  and  _207
REMARK   87  A    between atoms: _210  and  _212
REMARK   88  A    between atoms: _212  and  _213
REMARK   89  A    between atoms: _215  and  _217
REMARK   90  A    between atoms: _217  and  _218
REMARK   91  A    between atoms: _217  and  _220
REMARK   92  A    between atoms: _220  and  _221
REMARK   93  A    between atoms: _221  and  _222
REMARK   94  A    between atoms: _225  and  _227
REMARK   95  A    between atoms: _227  and  _228
REMARK   96  A    between atoms: _227  and  _230
REMARK   97  A    between atoms: _230  and  _231
REMARK   98  A    between atoms: _234  and  _236
REMARK   99  A    between atoms: _236  and  _237
REMARK  100  A    between atoms: _236  and  _239
REMARK  101  A    between atoms: _239  and  _240
REMARK  102  A    between atoms: _242  and  _244
REMARK  103  A    between atoms: _244  and  _245
REMARK  104  A    between atoms: _244  and  _247
REMARK  105  A    between atoms: _247  and  _248
REMARK  106  A    between atoms: _251  and  _253
REMARK  107  A    between atoms: _253  and  _254
REMARK  108  A    between atoms: _253  and  _256
REMARK  109  A    between atoms: _256  and  _257
REMARK  110  A    between atoms: _257  and  _258
REMARK  111  A    between atoms: _260  and  _262
REMARK  112  A    between atoms: _262  and  _263
REMARK  113  A    between atoms: _266  and  _268
REMARK  114  A    between atoms: _268  and  _269
REMARK  115  A    between atoms: _272  and  _274
REMARK  116  A    between atoms: _274  and  _275
REMARK  117  A    between atoms: _274  and  _277
REMARK  118  A    between atoms: _277  and  _278
REMARK  119  A    between atoms: _281  and  _283
REMARK  120  A    between atoms: _283  and  _284
REMARK  121  A    between atoms: _287  and  _289
REMARK  122  A    between atoms: _289  and  _290
REMARK  123  A    between atoms: _293  and  _295
REMARK  124  A    between atoms: _295  and  _296
REMARK  125  A    between atoms: _298  and  _300
REMARK  126  A    between atoms: _300  and  _301
REMARK  127  A    between atoms: _300  and  _303
REMARK  128  A    between atoms: _303  and  _304
REMARK  129  A    between atoms: _309  and  _311
REMARK  130  A    between atoms: _311  and  _312
REMARK  131  A    between atoms: _311  and  _314
REMARK  132  A    between atoms: _314  and  _315
REMARK  133  A    between atoms: _315  and  _316
REMARK  134  A    between atoms: _319  and  _321
REMARK  135  A    between atoms: _321  and  _322
REMARK  136  A    between atoms: _321  and  _324
REMARK  137  A    between atoms: _324  and  _325
REMARK  138  A    between atoms: _328  and  _330
REMARK  139  A    between atoms: _330  and  _331
REMARK  140  A    between atoms: _330  and  _333
REMARK  141  A    between atoms: _333  and  _334
REMARK  142  A    between atoms: _334  and  _335
REMARK  143  A    between atoms: _335  and  _336
REMARK  144  A    between atoms: _345  and  _347
REMARK  145  A    between atoms: _347  and  _348
REMARK  146  A    between atoms: _351  and  _352
REMARK  147  A    between atoms: _357  and  _359
REMARK  148  A    between atoms: _359  and  _360
REMARK  149  A    between atoms: _359  and  _362
REMARK  150  A    between atoms: _362  and  _363
REMARK  151  A    between atoms: _363  and  _364
REMARK  152  A    between atoms: _366  and  _368
REMARK  153  A    between atoms: _368  and  _369
REMARK  154  A    between atoms: _368  and  _371
REMARK  155  A    between atoms: _371  and  _372
REMARK  156  A    between atoms: _372  and  _373
REMARK  157  A    between atoms: _375  and  _377
REMARK  158  A    between atoms: _377  and  _378
REMARK  159  A    between atoms: _377  and  _380
REMARK  160  A    between atoms: _380  and  _381
REMARK  161  A    between atoms: _386  and  _388
REMARK  162  A    between atoms: _388  and  _389
REMARK  163  A    between atoms: _388  and  _391
REMARK  164  A    between atoms: _391  and  _392
REMARK  165  A    between atoms: _395  and  _397
REMARK  166  A    between atoms: _397  and  _398
REMARK  167  A    between atoms: _397  and  _400
REMARK  168  A    between atoms: _400  and  _401
REMARK  169  A    between atoms: _403  and  _405
REMARK  170  A    between atoms: _405  and  _406
REMARK  171  A    between atoms: _405  and  _408
REMARK  172  A    between atoms: _408  and  _409
REMARK  173  A    between atoms: _409  and  _410
REMARK  174  A    between atoms: _410  and  _411
REMARK  175  A    between atoms: _411  and  _412
REMARK  176  A    between atoms: _416  and  _418
REMARK  177  A    between atoms: _418  and  _419
REMARK  178  A    between atoms: _418  and  _421
REMARK  179  A    between atoms: _421  and  _422
REMARK  180  A    between atoms: _425  and  _427
REMARK  181  A    between atoms: _427  and  _428
REMARK  182  A    between atoms: _427  and  _430
REMARK  183  A    between atoms: _430  and  _431
REMARK  184  A    between atoms: _431  and  _432
REMARK  185  A    between atoms: _435  and  _437
REMARK  186  A    between atoms: _437  and  _438
REMARK  187  A    between atoms: _441  and  _443
REMARK  188  A    between atoms: _443  and  _444
REMARK  189  A    between atoms: _443  and  _446
REMARK  190  A    between atoms: _449  and  _451
REMARK  191  A    between atoms: _451  and  _452
REMARK  192  A    between atoms: _451  and  _454
REMARK  193  A    between atoms: _454  and  _455
REMARK  194  A    between atoms: _457  and  _459
REMARK  195  A    between atoms: _459  and  _460
REMARK  196  A    between atoms: _462  and  _464
REMARK  197  A    between atoms: _464  and  _465
REMARK  198  A    between atoms: _464  and  _467
REMARK  199  A    between atoms: _467  and  _468
REMARK  200  A    between atoms: _473  and  _475
REMARK  201  A    between atoms: _475  and  _476
REMARK  202  A    between atoms: _475  and  _478
REMARK  203  A    between atoms: _478  and  _479
REMARK  204  A    between atoms: _484  and  _485
REMARK  205  A    between atoms: _487  and  _489
REMARK  206  A    between atoms: _489  and  _490
REMARK  207  A    between atoms: _489  and  _492
REMARK  208  A    between atoms: _494  and  _496
REMARK  209  A    between atoms: _496  and  _497
REMARK  210  A    between atoms: _496  and  _499
REMARK  211  A    between atoms: _499  and  _500
REMARK  212  A    between atoms: _503  and  _505
REMARK  213  A    between atoms: _505  and  _506
REMARK  214  A    between atoms: _505  and  _508
REMARK  215  A    between atoms: _508  and  _509
REMARK  216  A    between atoms: _512  and  _514
REMARK  217  A    between atoms: _514  and  _515
REMARK  218  A    between atoms: _514  and  _517
REMARK  219  A    between atoms: _517  and  _518
REMARK  220  A    between atoms: _518  and  _519
REMARK  221  A    between atoms: _519  and  _520
REMARK  222  A    between atoms: _520  and  _521
REMARK  223  A    between atoms: _525  and  _527
REMARK  224  A    between atoms: _527  and  _528
REMARK  225  A    between atoms: _527  and  _530
REMARK  226  A    between atoms: _530  and  _531
REMARK  227  A    between atoms: _531  and  _532
REMARK  228  A    between atoms: _532  and  _533
REMARK  229  A    between atoms: _533  and  _534
REMARK  230  A    between atoms: _538  and  _540
REMARK  231  A    between atoms: _540  and  _541
REMARK  232  A    between atoms: _540  and  _543
REMARK  233  A    between atoms: _543  and  _544
REMARK  234  A    between atoms: _544  and  _545
REMARK  235  A    between atoms: _545  and  _546
REMARK  236  A    between atoms: _555  and  _557
REMARK  237  A    between atoms: _557  and  _558
REMARK  238  A    between atoms: _557  and  _560
REMARK  239  A    between atoms: _560  and  _561
REMARK  240  A    between atoms: _564  and  _566
REMARK  241  A    between atoms: _566  and  _567
REMARK  242  A    between atoms: _570  and  _572
REMARK  243  A    between atoms: _572  and  _573
REMARK  244  A    between atoms: _572  and  _575
REMARK  245  A    between atoms: _575  and  _576
REMARK  246  A    between atoms: _576  and  _577
REMARK                            x       y       z     vdW  Elec       q    Type
REMARK                         _______ _______ _______ _____ _____    ______ ____
ROOT
ATOM      1  O   HOH     1       6.127 -17.787   4.374  0.00  0.00    +0.000 OA
ENDROOT
TORSDOF 0
REMARK  Name = ../refined-set-2016/3cd7/3cd7_pocket.pdb
REMARK  246 active torsions:
REMARK  status: ('A' for Active; 'I' for Inactive)
REMARK    1  A    between atoms: _1  and  _3
REMARK    2  A    between atoms: _3  and  _4
REMARK    3  A    between atoms: _3  and  _6
REMARK    4  A    between atoms: _6  and  _7
REMARK    5  A    between atoms: _7  and  _8
REMARK    6  A    between atoms: _11  and  _13
REMARK    7  A    between atoms: _13  and  _14
REMARK    8  A    between atoms: _16  and  _18
REMARK    9  A    between atoms: _18  and  _19
REMARK   10  A    between atoms: _18  and  _21
REMARK   11  A    between atoms: _23  and  _25
REMARK   12  A    between atoms: _25  and  _26
REMARK   13  A    between atoms: _25  and  _28
REMARK   14  A    between atoms: _28  and  _29
REMARK   15  A    between atoms: _32  and  _34
REMARK   16  A    between atoms: _34  and  _35
REMARK   17  A    between atoms: _34  and  _37
REMARK   18  A    between atoms: _40  and  _42
REMARK   19  A    between atoms: _42  and  _43
REMARK   20  A    between atoms: _46  and  _48
REMARK   21  A    between atoms: _48  and  _49
REMARK   22  A    between atoms: _48  and  _51
REMARK   23  A    between atoms: _51  and  _52
REMARK   24  A    between atoms: _54  and  _56
REMARK   25  A    between atoms: _56  and  _57
REMARK   26  A    between atoms: _56  and  _59
REMARK   27  A    between atoms: _59  and  _60
REMARK   28  A    between atoms: _63  and  _65
REMARK   29  A    between atoms: _65  and  _66
REMARK   30  A    between atoms: _65  and  _68
REMARK   31  A    between atoms: _68  and  _69
REMARK   32  A    between atoms: _74  and  _76
REMARK   33  A    between atoms: _76  and  _77
REMARK   34  A    between atoms: _76  and  _79
REMARK   35  A    between atoms: _79  and  _80
REMARK   36  A    between atoms: _80  and  _81
REMARK   37  A    between atoms: _81  and  _82
REMARK   38  A    between atoms: _91  and  _93
REMARK   39  A    between atoms: _93  and  _94
REMARK   40  A    between atoms: _96  and  _98
REMARK   41  A    between atoms: _98  and  _99
REMARK   42  A    between atoms: _98  and  _101
REMARK   43  A    between atoms: _104  and  _106
REMARK   44  A    between atoms: _106  and  _107
REMARK   45  A    between atoms: _106  and  _109
REMARK   46  A    between atoms: _109  and  _110
REMARK   47  A    between atoms: _113  and  _115
REMARK   48  A    between atoms: _115  and  _116
REMARK   49  A    between atoms: _115  and  _118
REMARK   50  A    between atoms: _118  and  _119
REMARK   51  A    between atoms: _119  and  _120
REMARK   52  A    between atoms: _120  and  _121
REMARK   53  A    between atoms: _121  and  _122
REMARK   54  A    between atoms: _126  and  _128
REMARK   55  A    between atoms: _128  and  _129
REMARK   56  A    between atoms: _128  and  _131
REMARK   57  A    between atoms: _131  and  _132
REMARK   58  A    between atoms: _132  and  _133
REMARK   59  A    between atoms: _133  and  _134
REMARK   60  A    between atoms: _134  and  _135
REMARK   61  A    between atoms: _139  and  _141
REMARK   62  A    between atoms: _141  and  _142
REMARK   63  A    between atoms: _141  and  _144
REMARK   64  A    between atoms: _144  and  _145
REMARK   65  A    between atoms: _150  and  _152
REMARK   66  A    between atoms: _152  and  _153
REMARK   67  A    between atoms: _152  and  _155
REMARK   68  A    between atoms: _155  and  _156
REMARK   69  A    between atoms: _161  and  _163
REMARK   70  A    between atoms: _163  and  _164
REMARK   71  A    between atoms: _167  and  _169
REMARK   72  A    between atoms: _169  and  _170
REMARK   73  A    between atoms: _169  and  _172
REMARK   74  A    between atoms: _172  and  _173
REMARK   75  A    between atoms: _178  and  _180
REMARK   76  A    between atoms: _180  and  _181
REMARK   77  A    between atoms: _184  and  _186
REMARK   78  A    between atoms: _186  and  _187
REMARK   79  A    between atoms: _190  and  _192
REMARK   80  A    between atoms: _192  and  _193
REMARK   81  A    between atoms: _192  and  _195
REMARK   82  A    between atoms: _195  and  _196
REMARK   83  A    between atoms: _201  and  _203
REMARK   84  A    between atoms: _203  and  _204
REMARK   85  A    between atoms: _203  and  _206
REMARK   86  A    between atoms: _206  and  _207
REMARK   87  A    between atoms: _210  and  _212
REMARK   88  A    between atoms: _212  and  _213
REMARK   89  A    between atoms: _215  and  _217
REMARK   90  A    between atoms: _217  and  _218
REMARK   91  A    between atoms: _217  and  _220
REMARK   92  A    between atoms: _220  and  _221
REMARK   93  A    between atoms: _221  and  _222
REMARK   94  A    between atoms: _225  and  _227
REMARK   95  A    between atoms: _227  and  _228
REMARK   96  A    between atoms: _227  and  _230
REMARK   97  A    between atoms: _230  and  _231
REMARK   98  A    between atoms: _234  and  _236
REMARK   99  A    between atoms: _236  and  _237
REMARK  100  A    between atoms: _236  and  _239
REMARK  101  A    between atoms: _239  and  _240
REMARK  102  A    between atoms: _242  and  _244
REMARK  103  A    between atoms: _244  and  _245
REMARK  104  A    between atoms: _244  and  _247
REMARK  105  A    between atoms: _247  and  _248
REMARK  106  A    between atoms: _251  and  _253
REMARK  107  A    between atoms: _253  and  _254
REMARK  108  A    between atoms: _253  and  _256
REMARK  109  A    between atoms: _256  and  _257
REMARK  110  A    between atoms: _257  and  _258
REMARK  111  A    between atoms: _260  and  _262
REMARK  112  A    between atoms: _262  and  _263
REMARK  113  A    between atoms: _266  and  _268
REMARK  114  A    between atoms: _268  and  _269
REMARK  115  A    between atoms: _272  and  _274
REMARK  116  A    between atoms: _274  and  _275
REMARK  117  A    between atoms: _274  and  _277
REMARK  118  A    between atoms: _277  and  _278
REMARK  119  A    between atoms: _281  and  _283
REMARK  120  A    between atoms: _283  and  _284
REMARK  121  A    between atoms: _287  and  _289
REMARK  122  A    between atoms: _289  and  _290
REMARK  123  A    between atoms: _293  and  _295
REMARK  124  A    between atoms: _295  and  _296
REMARK  125  A    between atoms: _298  and  _300
REMARK  126  A    between atoms: _300  and  _301
REMARK  127  A    between atoms: _300  and  _303
REMARK  128  A    between atoms: _303  and  _304
REMARK  129  A    between atoms: _309  and  _311
REMARK  130  A    between atoms: _311  and  _312
REMARK  131  A    between atoms: _311  and  _314
REMARK  132  A    between atoms: _314  and  _315
REMARK  133  A    between atoms: _315  and  _316
REMARK  134  A    between atoms: _319  and  _321
REMARK  135  A    between atoms: _321  and  _322
REMARK  136  A    between atoms: _321  and  _324
REMARK  137  A    between atoms: _324  and  _325
REMARK  138  A    between atoms: _328  and  _330
REMARK  139  A    between atoms: _330  and  _331
REMARK  140  A    between atoms: _330  and  _333
REMARK  141  A    between atoms: _333  and  _334
REMARK  142  A    between atoms: _334  and  _335
REMARK  143  A    between atoms: _335  and  _336
REMARK  144  A    between atoms: _345  and  _347
REMARK  145  A    between atoms: _347  and  _348
REMARK  146  A    between atoms: _351  and  _352
REMARK  147  A    between atoms: _357  and  _359
REMARK  148  A    between atoms: _359  and  _360
REMARK  149  A    between atoms: _359  and  _362
REMARK  150  A    between atoms: _362  and  _363
REMARK  151  A    between atoms: _363  and  _364
REMARK  152  A    between atoms: _366  and  _368
REMARK  153  A    between atoms: _368  and  _369
REMARK  154  A    between atoms: _368  and  _371
REMARK  155  A    between atoms: _371  and  _372
REMARK  156  A    between atoms: _372  and  _373
REMARK  157  A    between atoms: _375  and  _377
REMARK  158  A    between atoms: _377  and  _378
REMARK  159  A    between atoms: _377  and  _380
REMARK  160  A    between atoms: _380  and  _381
REMARK  161  A    between atoms: _386  and  _388
REMARK  162  A    between atoms: _388  and  _389
REMARK  163  A    between atoms: _388  and  _391
REMARK  164  A    between atoms: _391  and  _392
REMARK  165  A    between atoms: _395  and  _397
REMARK  166  A    between atoms: _397  and  _398
REMARK  167  A    between atoms: _397  and  _400
REMARK  168  A    between atoms: _400  and  _401
REMARK  169  A    between atoms: _403  and  _405
REMARK  170  A    between atoms: _405  and  _406
REMARK  171  A    between atoms: _405  and  _408
REMARK  172  A    between atoms: _408  and  _409
REMARK  173  A    between atoms: _409  and  _410
REMARK  174  A    between atoms: _410  and  _411
REMARK  175  A    between atoms: _411  and  _412
REMARK  176  A    between atoms: _416  and  _418
REMARK  177  A    between atoms: _418  and  _419
REMARK  178  A    between atoms: _418  and  _421
REMARK  179  A    between atoms: _421  and  _422
REMARK  180  A    between atoms: _425  and  _427
REMARK  181  A    between atoms: _427  and  _428
REMARK  182  A    between atoms: _427  and  _430
REMARK  183  A    between atoms: _430  and  _431
REMARK  184  A    between atoms: _431  and  _432
REMARK  185  A    between atoms: _435  and  _437
REMARK  186  A    between atoms: _437  and  _438
REMARK  187  A    between atoms: _441  and  _443
REMARK  188  A    between atoms: _443  and  _444
REMARK  189  A    between atoms: _443  and  _446
REMARK  190  A    between atoms: _449  and  _451
REMARK  191  A    between atoms: _451  and  _452
REMARK  192  A    between atoms: _451  and  _454
REMARK  193  A    between atoms: _454  and  _455
REMARK  194  A    between atoms: _457  and  _459
REMARK  195  A    between atoms: _459  and  _460
REMARK  196  A    between atoms: _462  and  _464
REMARK  197  A    between atoms: _464  and  _465
REMARK  198  A    between atoms: _464  and  _467
REMARK  199  A    between atoms: _467  and  _468
REMARK  200  A    between atoms: _473  and  _475
REMARK  201  A    between atoms: _475  and  _476
REMARK  202  A    between atoms: _475  and  _478
REMARK  203  A    between atoms: _478  and  _479
REMARK  204  A    between atoms: _484  and  _485
REMARK  205  A    between atoms: _487  and  _489
REMARK  206  A    between atoms: _489  and  _490
REMARK  207  A    between atoms: _489  and  _492
REMARK  208  A    between atoms: _494  and  _496
REMARK  209  A    between atoms: _496  and  _497
REMARK  210  A    between atoms: _496  and  _499
REMARK  211  A    between atoms: _499  and  _500
REMARK  212  A    between atoms: _503  and  _505
REMARK  213  A    between atoms: _505  and  _506
REMARK  214  A    between atoms: _505  and  _508
REMARK  215  A    between atoms: _508  and  _509
REMARK  216  A    between atoms: _512  and  _514
REMARK  217  A    between atoms: _514  and  _515
REMARK  218  A    between atoms: _514  and  _517
REMARK  219  A    between atoms: _517  and  _518
REMARK  220  A    between atoms: _518  and  _519
REMARK  221  A    between atoms: _519  and  _520
REMARK  222  A    between atoms: _520  and  _521
REMARK  223  A    between atoms: _525  and  _527
REMARK  224  A    between atoms: _527  and  _528
REMARK  225  A    between atoms: _527  and  _530
REMARK  226  A    between atoms: _530  and  _531
REMARK  227  A    between atoms: _531  and  _532
REMARK  228  A    between atoms: _532  and  _533
REMARK  229  A    between atoms: _533  and  _534
REMARK  230  A    between atoms: _538  and  _540
REMARK  231  A    between atoms: _540  and  _541
REMARK  232  A    between atoms: _540  and  _543
REMARK  233  A    between atoms: _543  and  _544
REMARK  234  A    between atoms: _544  and  _545
REMARK  235  A    between atoms: _545  and  _546
REMARK  236  A    between atoms: _555  and  _557
REMARK  237  A    between atoms: _557  and  _558
REMARK  238  A    between atoms: _557  and  _560
REMARK  239  A    between atoms: _560  and  _561
REMARK  240  A    between atoms: _564  and  _566
REMARK  241  A    between atoms: _566  and  _567
REMARK  242  A    between atoms: _570  and  _572
REMARK  243  A    between atoms: _572  and  _573
REMARK  244  A    between atoms: _572  and  _575
REMARK  245  A    between atoms: _575  and  _576
REMARK  246  A    between atoms: _576  and  _577
REMARK                            x       y       z     vdW  Elec       q    Type
REMARK                         _______ _______ _______ _____ _____    ______ ____
ROOT
ATOM      1  O   HOH     1       1.823  -8.837   2.925  0.00  0.00    +0.000 OA
ENDROOT
TORSDOF 0
REMARK  Name = ../refined-set-2016/3cd7/3cd7_pocket.pdb
REMARK  246 active torsions:
REMARK  status: ('A' for Active; 'I' for Inactive)
REMARK    1  A    between atoms: _1  and  _3
REMARK    2  A    between atoms: _3  and  _4
REMARK    3  A    between atoms: _3  and  _6
REMARK    4  A    between atoms: _6  and  _7
REMARK    5  A    between atoms: _7  and  _8
REMARK    6  A    between atoms: _11  and  _13
REMARK    7  A    between atoms: _13  and  _14
REMARK    8  A    between atoms: _16  and  _18
REMARK    9  A    between atoms: _18  and  _19
REMARK   10  A    between atoms: _18  and  _21
REMARK   11  A    between atoms: _23  and  _25
REMARK   12  A    between atoms: _25  and  _26
REMARK   13  A    between atoms: _25  and  _28
REMARK   14  A    between atoms: _28  and  _29
REMARK   15  A    between atoms: _32  and  _34
REMARK   16  A    between atoms: _34  and  _35
REMARK   17  A    between atoms: _34  and  _37
REMARK   18  A    between atoms: _40  and  _42
REMARK   19  A    between atoms: _42  and  _43
REMARK   20  A    between atoms: _46  and  _48
REMARK   21  A    between atoms: _48  and  _49
REMARK   22  A    between atoms: _48  and  _51
REMARK   23  A    between atoms: _51  and  _52
REMARK   24  A    between atoms: _54  and  _56
REMARK   25  A    between atoms: _56  and  _57
REMARK   26  A    between atoms: _56  and  _59
REMARK   27  A    between atoms: _59  and  _60
REMARK   28  A    between atoms: _63  and  _65
REMARK   29  A    between atoms: _65  and  _66
REMARK   30  A    between atoms: _65  and  _68
REMARK   31  A    between atoms: _68  and  _69
REMARK   32  A    between atoms: _74  and  _76
REMARK   33  A    between atoms: _76  and  _77
REMARK   34  A    between atoms: _76  and  _79
REMARK   35  A    between atoms: _79  and  _80
REMARK   36  A    between atoms: _80  and  _81
REMARK   37  A    between atoms: _81  and  _82
REMARK   38  A    between atoms: _91  and  _93
REMARK   39  A    between atoms: _93  and  _94
REMARK   40  A    between atoms: _96  and  _98
REMARK   41  A    between atoms: _98  and  _99
REMARK   42  A    between atoms: _98  and  _101
REMARK   43  A    between atoms: _104  and  _106
REMARK   44  A    between atoms: _106  and  _107
REMARK   45  A    between atoms: _106  and  _109
REMARK   46  A    between atoms: _109  and  _110
REMARK   47  A    between atoms: _113  and  _115
REMARK   48  A    between atoms: _115  and  _116
REMARK   49  A    between atoms: _115  and  _118
REMARK   50  A    between atoms: _118  and  _119
REMARK   51  A    between atoms: _119  and  _120
REMARK   52  A    between atoms: _120  and  _121
REMARK   53  A    between atoms: _121  and  _122
REMARK   54  A    between atoms: _126  and  _128
REMARK   55  A    between atoms: _128  and  _129
REMARK   56  A    between atoms: _128  and  _131
REMARK   57  A    between atoms: _131  and  _132
REMARK   58  A    between atoms: _132  and  _133
REMARK   59  A    between atoms: _133  and  _134
REMARK   60  A    between atoms: _134  and  _135
REMARK   61  A    between atoms: _139  and  _141
REMARK   62  A    between atoms: _141  and  _142
REMARK   63  A    between atoms: _141  and  _144
REMARK   64  A    between atoms: _144  and  _145
REMARK   65  A    between atoms: _150  and  _152
REMARK   66  A    between atoms: _152  and  _153
REMARK   67  A    between atoms: _152  and  _155
REMARK   68  A    between atoms: _155  and  _156
REMARK   69  A    between atoms: _161  and  _163
REMARK   70  A    between atoms: _163  and  _164
REMARK   71  A    between atoms: _167  and  _169
REMARK   72  A    between atoms: _169  and  _170
REMARK   73  A    between atoms: _169  and  _172
REMARK   74  A    between atoms: _172  and  _173
REMARK   75  A    between atoms: _178  and  _180
REMARK   76  A    between atoms: _180  and  _181
REMARK   77  A    between atoms: _184  and  _186
REMARK   78  A    between atoms: _186  and  _187
REMARK   79  A    between atoms: _190  and  _192
REMARK   80  A    between atoms: _192  and  _193
REMARK   81  A    between atoms: _192  and  _195
REMARK   82  A    between atoms: _195  and  _196
REMARK   83  A    between atoms: _201  and  _203
REMARK   84  A    between atoms: _203  and  _204
REMARK   85  A    between atoms: _203  and  _206
REMARK   86  A    between atoms: _206  and  _207
REMARK   87  A    between atoms: _210  and  _212
REMARK   88  A    between atoms: _212  and  _213
REMARK   89  A    between atoms: _215  and  _217
REMARK   90  A    between atoms: _217  and  _218
REMARK   91  A    between atoms: _217  and  _220
REMARK   92  A    between atoms: _220  and  _221
REMARK   93  A    between atoms: _221  and  _222
REMARK   94  A    between atoms: _225  and  _227
REMARK   95  A    between atoms: _227  and  _228
REMARK   96  A    between atoms: _227  and  _230
REMARK   97  A    between atoms: _230  and  _231
REMARK   98  A    between atoms: _234  and  _236
REMARK   99  A    between atoms: _236  and  _237
REMARK  100  A    between atoms: _236  and  _239
REMARK  101  A    between atoms: _239  and  _240
REMARK  102  A    between atoms: _242  and  _244
REMARK  103  A    between atoms: _244  and  _245
REMARK  104  A    between atoms: _244  and  _247
REMARK  105  A    between atoms: _247  and  _248
REMARK  106  A    between atoms: _251  and  _253
REMARK  107  A    between atoms: _253  and  _254
REMARK  108  A    between atoms: _253  and  _256
REMARK  109  A    between atoms: _256  and  _257
REMARK  110  A    between atoms: _257  and  _258
REMARK  111  A    between atoms: _260  and  _262
REMARK  112  A    between atoms: _262  and  _263
REMARK  113  A    between atoms: _266  and  _268
REMARK  114  A    between atoms: _268  and  _269
REMARK  115  A    between atoms: _272  and  _274
REMARK  116  A    between atoms: _274  and  _275
REMARK  117  A    between atoms: _274  and  _277
REMARK  118  A    between atoms: _277  and  _278
REMARK  119  A    between atoms: _281  and  _283
REMARK  120  A    between atoms: _283  and  _284
REMARK  121  A    between atoms: _287  and  _289
REMARK  122  A    between atoms: _289  and  _290
REMARK  123  A    between atoms: _293  and  _295
REMARK  124  A    between atoms: _295  and  _296
REMARK  125  A    between atoms: _298  and  _300
REMARK  126  A    between atoms: _300  and  _301
REMARK  127  A    between atoms: _300  and  _303
REMARK  128  A    between atoms: _303  and  _304
REMARK  129  A    between atoms: _309  and  _311
REMARK  130  A    between atoms: _311  and  _312
REMARK  131  A    between atoms: _311  and  _314
REMARK  132  A    between atoms: _314  and  _315
REMARK  133  A    between atoms: _315  and  _316
REMARK  134  A    between atoms: _319  and  _321
REMARK  135  A    between atoms: _321  and  _322
REMARK  136  A    between atoms: _321  and  _324
REMARK  137  A    between atoms: _324  and  _325
REMARK  138  A    between atoms: _328  and  _330
REMARK  139  A    between atoms: _330  and  _331
REMARK  140  A    between atoms: _330  and  _333
REMARK  141  A    between atoms: _333  and  _334
REMARK  142  A    between atoms: _334  and  _335
REMARK  143  A    between atoms: _335  and  _336
REMARK  144  A    between atoms: _345  and  _347
REMARK  145  A    between atoms: _347  and  _348
REMARK  146  A    between atoms: _351  and  _352
REMARK  147  A    between atoms: _357  and  _359
REMARK  148  A    between atoms: _359  and  _360
REMARK  149  A    between atoms: _359  and  _362
REMARK  150  A    between atoms: _362  and  _363
REMARK  151  A    between atoms: _363  and  _364
REMARK  152  A    between atoms: _366  and  _368
REMARK  153  A    between atoms: _368  and  _369
REMARK  154  A    between atoms: _368  and  _371
REMARK  155  A    between atoms: _371  and  _372
REMARK  156  A    between atoms: _372  and  _373
REMARK  157  A    between atoms: _375  and  _377
REMARK  158  A    between atoms: _377  and  _378
REMARK  159  A    between atoms: _377  and  _380
REMARK  160  A    between atoms: _380  and  _381
REMARK  161  A    between atoms: _386  and  _388
REMARK  162  A    between atoms: _388  and  _389
REMARK  163  A    between atoms: _388  and  _391
REMARK  164  A    between atoms: _391  and  _392
REMARK  165  A    between atoms: _395  and  _397
REMARK  166  A    between atoms: _397  and  _398
REMARK  167  A    between atoms: _397  and  _400
REMARK  168  A    between atoms: _400  and  _401
REMARK  169  A    between atoms: _403  and  _405
REMARK  170  A    between atoms: _405  and  _406
REMARK  171  A    between atoms: _405  and  _408
REMARK  172  A    between atoms: _408  and  _409
REMARK  173  A    between atoms: _409  and  _410
REMARK  174  A    between atoms: _410  and  _411
REMARK  175  A    between atoms: _411  and  _412
REMARK  176  A    between atoms: _416  and  _418
REMARK  177  A    between atoms: _418  and  _419
REMARK  178  A    between atoms: _418  and  _421
REMARK  179  A    between atoms: _421  and  _422
REMARK  180  A    between atoms: _425  and  _427
REMARK  181  A    between atoms: _427  and  _428
REMARK  182  A    between atoms: _427  and  _430
REMARK  183  A    between atoms: _430  and  _431
REMARK  184  A    between atoms: _431  and  _432
REMARK  185  A    between atoms: _435  and  _437
REMARK  186  A    between atoms: _437  and  _438
REMARK  187  A    between atoms: _441  and  _443
REMARK  188  A    between atoms: _443  and  _444
REMARK  189  A    between atoms: _443  and  _446
REMARK  190  A    between atoms: _449  and  _451
REMARK  191  A    between atoms: _451  and  _452
REMARK  192  A    between atoms: _451  and  _454
REMARK  193  A    between atoms: _454  and  _455
REMARK  194  A    between atoms: _457  and  _459
REMARK  195  A    between atoms: _459  and  _460
REMARK  196  A    between atoms: _462  and  _464
REMARK  197  A    between atoms: _464  and  _465
REMARK  198  A    between atoms: _464  and  _467
REMARK  199  A    between atoms: _467  and  _468
REMARK  200  A    between atoms: _473  and  _475
REMARK  201  A    between atoms: _475  and  _476
REMARK  202  A    between atoms: _475  and  _478
REMARK  203  A    between atoms: _478  and  _479
REMARK  204  A    between atoms: _484  and  _485
REMARK  205  A    between atoms: _487  and  _489
REMARK  206  A    between atoms: _489  and  _490
REMARK  207  A    between atoms: _489  and  _492
REMARK  208  A    between atoms: _494  and  _496
REMARK  209  A    between atoms: _496  and  _497
REMARK  210  A    between atoms: _496  and  _499
REMARK  211  A    between atoms: _499  and  _500
REMARK  212  A    between atoms: _503  and  _505
REMARK  213  A    between atoms: _505  and  _506
REMARK  214  A    between atoms: _505  and  _508
REMARK  215  A    between atoms: _508  and  _509
REMARK  216  A    between atoms: _512  and  _514
REMARK  217  A    between atoms: _514  and  _515
REMARK  218  A    between atoms: _514  and  _517
REMARK  219  A    between atoms: _517  and  _518
REMARK  220  A    between atoms: _518  and  _519
REMARK  221  A    between atoms: _519  and  _520
REMARK  222  A    between atoms: _520  and  _521
REMARK  223  A    between atoms: _525  and  _527
REMARK  224  A    between atoms: _527  and  _528
REMARK  225  A    between atoms: _527  and  _530
REMARK  226  A    between atoms: _530  and  _531
REMARK  227  A    between atoms: _531  and  _532
REMARK  228  A    between atoms: _532  and  _533
REMARK  229  A    between atoms: _533  and  _534
REMARK  230  A    between atoms: _538  and  _540
REMARK  231  A    between atoms: _540  and  _541
REMARK  232  A    between atoms: _540  and  _543
REMARK  233  A    between atoms: _543  and  _544
REMARK  234  A    between atoms: _544  and  _545
REMARK  235  A    between atoms: _545  and  _546
REMARK  236  A    between atoms: _555  and  _557
REMARK  237  A    between atoms: _557  and  _558
REMARK  238  A    between atoms: _557  and  _560
REMARK  239  A    between atoms: _560  and  _561
REMARK  240  A    between atoms: _564  and  _566
REMARK  241  A    between atoms: _566  and  _567
REMARK  242  A    between atoms: _570  and  _572
REMARK  243  A    between atoms: _572  and  _573
REMARK  244  A    between atoms: _572  and  _575
REMARK  245  A    between atoms: _575  and  _576
REMARK  246  A    between atoms: _576  and  _577
REMARK                            x       y       z     vdW  Elec       q    Type
REMARK                         _______ _______ _______ _____ _____    ______ ____
ROOT
ATOM      1  O   HOH     1      -0.914  -9.915  14.859  0.00  0.00    +0.000 OA
ENDROOT
TORSDOF 0
REMARK  Name = ../refined-set-2016/3cd7/3cd7_pocket.pdb
REMARK  246 active torsions:
REMARK  status: ('A' for Active; 'I' for Inactive)
REMARK    1  A    between atoms: _1  and  _3
REMARK    2  A    between atoms: _3  and  _4
REMARK    3  A    between atoms: _3  and  _6
REMARK    4  A    between atoms: _6  and  _7
REMARK    5  A    between atoms: _7  and  _8
REMARK    6  A    between atoms: _11  and  _13
REMARK    7  A    between atoms: _13  and  _14
REMARK    8  A    between atoms: _16  and  _18
REMARK    9  A    between atoms: _18  and  _19
REMARK   10  A    between atoms: _18  and  _21
REMARK   11  A    between atoms: _23  and  _25
REMARK   12  A    between atoms: _25  and  _26
REMARK   13  A    between atoms: _25  and  _28
REMARK   14  A    between atoms: _28  and  _29
REMARK   15  A    between atoms: _32  and  _34
REMARK   16  A    between atoms: _34  and  _35
REMARK   17  A    between atoms: _34  and  _37
REMARK   18  A    between atoms: _40  and  _42
REMARK   19  A    between atoms: _42  and  _43
REMARK   20  A    between atoms: _46  and  _48
REMARK   21  A    between atoms: _48  and  _49
REMARK   22  A    between atoms: _48  and  _51
REMARK   23  A    between atoms: _51  and  _52
REMARK   24  A    between atoms: _54  and  _56
REMARK   25  A    between atoms: _56  and  _57
REMARK   26  A    between atoms: _56  and  _59
REMARK   27  A    between atoms: _59  and  _60
REMARK   28  A    between atoms: _63  and  _65
REMARK   29  A    between atoms: _65  and  _66
REMARK   30  A    between atoms: _65  and  _68
REMARK   31  A    between atoms: _68  and  _69
REMARK   32  A    between atoms: _74  and  _76
REMARK   33  A    between atoms: _76  and  _77
REMARK   34  A    between atoms: _76  and  _79
REMARK   35  A    between atoms: _79  and  _80
REMARK   36  A    between atoms: _80  and  _81
REMARK   37  A    between atoms: _81  and  _82
REMARK   38  A    between atoms: _91  and  _93
REMARK   39  A    between atoms: _93  and  _94
REMARK   40  A    between atoms: _96  and  _98
REMARK   41  A    between atoms: _98  and  _99
REMARK   42  A    between atoms: _98  and  _101
REMARK   43  A    between atoms: _104  and  _106
REMARK   44  A    between atoms: _106  and  _107
REMARK   45  A    between atoms: _106  and  _109
REMARK   46  A    between atoms: _109  and  _110
REMARK   47  A    between atoms: _113  and  _115
REMARK   48  A    between atoms: _115  and  _116
REMARK   49  A    between atoms: _115  and  _118
REMARK   50  A    between atoms: _118  and  _119
REMARK   51  A    between atoms: _119  and  _120
REMARK   52  A    between atoms: _120  and  _121
REMARK   53  A    between atoms: _121  and  _122
REMARK   54  A    between atoms: _126  and  _128
REMARK   55  A    between atoms: _128  and  _129
REMARK   56  A    between atoms: _128  and  _131
REMARK   57  A    between atoms: _131  and  _132
REMARK   58  A    between atoms: _132  and  _133
REMARK   59  A    between atoms: _133  and  _134
REMARK   60  A    between atoms: _134  and  _135
REMARK   61  A    between atoms: _139  and  _141
REMARK   62  A    between atoms: _141  and  _142
REMARK   63  A    between atoms: _141  and  _144
REMARK   64  A    between atoms: _144  and  _145
REMARK   65  A    between atoms: _150  and  _152
REMARK   66  A    between atoms: _152  and  _153
REMARK   67  A    between atoms: _152  and  _155
REMARK   68  A    between atoms: _155  and  _156
REMARK   69  A    between atoms: _161  and  _163
REMARK   70  A    between atoms: _163  and  _164
REMARK   71  A    between atoms: _167  and  _169
REMARK   72  A    between atoms: _169  and  _170
REMARK   73  A    between atoms: _169  and  _172
REMARK   74  A    between atoms: _172  and  _173
REMARK   75  A    between atoms: _178  and  _180
REMARK   76  A    between atoms: _180  and  _181
REMARK   77  A    between atoms: _184  and  _186
REMARK   78  A    between atoms: _186  and  _187
REMARK   79  A    between atoms: _190  and  _192
REMARK   80  A    between atoms: _192  and  _193
REMARK   81  A    between atoms: _192  and  _195
REMARK   82  A    between atoms: _195  and  _196
REMARK   83  A    between atoms: _201  and  _203
REMARK   84  A    between atoms: _203  and  _204
REMARK   85  A    between atoms: _203  and  _206
REMARK   86  A    between atoms: _206  and  _207
REMARK   87  A    between atoms: _210  and  _212
REMARK   88  A    between atoms: _212  and  _213
REMARK   89  A    between atoms: _215  and  _217
REMARK   90  A    between atoms: _217  and  _218
REMARK   91  A    between atoms: _217  and  _220
REMARK   92  A    between atoms: _220  and  _221
REMARK   93  A    between atoms: _221  and  _222
REMARK   94  A    between atoms: _225  and  _227
REMARK   95  A    between atoms: _227  and  _228
REMARK   96  A    between atoms: _227  and  _230
REMARK   97  A    between atoms: _230  and  _231
REMARK   98  A    between atoms: _234  and  _236
REMARK   99  A    between atoms: _236  and  _237
REMARK  100  A    between atoms: _236  and  _239
REMARK  101  A    between atoms: _239  and  _240
REMARK  102  A    between atoms: _242  and  _244
REMARK  103  A    between atoms: _244  and  _245
REMARK  104  A    between atoms: _244  and  _247
REMARK  105  A    between atoms: _247  and  _248
REMARK  106  A    between atoms: _251  and  _253
REMARK  107  A    between atoms: _253  and  _254
REMARK  108  A    between atoms: _253  and  _256
REMARK  109  A    between atoms: _256  and  _257
REMARK  110  A    between atoms: _257  and  _258
REMARK  111  A    between atoms: _260  and  _262
REMARK  112  A    between atoms: _262  and  _263
REMARK  113  A    between atoms: _266  and  _268
REMARK  114  A    between atoms: _268  and  _269
REMARK  115  A    between atoms: _272  and  _274
REMARK  116  A    between atoms: _274  and  _275
REMARK  117  A    between atoms: _274  and  _277
REMARK  118  A    between atoms: _277  and  _278
REMARK  119  A    between atoms: _281  and  _283
REMARK  120  A    between atoms: _283  and  _284
REMARK  121  A    between atoms: _287  and  _289
REMARK  122  A    between atoms: _289  and  _290
REMARK  123  A    between atoms: _293  and  _295
REMARK  124  A    between atoms: _295  and  _296
REMARK  125  A    between atoms: _298  and  _300
REMARK  126  A    between atoms: _300  and  _301
REMARK  127  A    between atoms: _300  and  _303
REMARK  128  A    between atoms: _303  and  _304
REMARK  129  A    between atoms: _309  and  _311
REMARK  130  A    between atoms: _311  and  _312
REMARK  131  A    between atoms: _311  and  _314
REMARK  132  A    between atoms: _314  and  _315
REMARK  133  A    between atoms: _315  and  _316
REMARK  134  A    between atoms: _319  and  _321
REMARK  135  A    between atoms: _321  and  _322
REMARK  136  A    between atoms: _321  and  _324
REMARK  137  A    between atoms: _324  and  _325
REMARK  138  A    between atoms: _328  and  _330
REMARK  139  A    between atoms: _330  and  _331
REMARK  140  A    between atoms: _330  and  _333
REMARK  141  A    between atoms: _333  and  _334
REMARK  142  A    between atoms: _334  and  _335
REMARK  143  A    between atoms: _335  and  _336
REMARK  144  A    between atoms: _345  and  _347
REMARK  145  A    between atoms: _347  and  _348
REMARK  146  A    between atoms: _351  and  _352
REMARK  147  A    between atoms: _357  and  _359
REMARK  148  A    between atoms: _359  and  _360
REMARK  149  A    between atoms: _359  and  _362
REMARK  150  A    between atoms: _362  and  _363
REMARK  151  A    between atoms: _363  and  _364
REMARK  152  A    between atoms: _366  and  _368
REMARK  153  A    between atoms: _368  and  _369
REMARK  154  A    between atoms: _368  and  _371
REMARK  155  A    between atoms: _371  and  _372
REMARK  156  A    between atoms: _372  and  _373
REMARK  157  A    between atoms: _375  and  _377
REMARK  158  A    between atoms: _377  and  _378
REMARK  159  A    between atoms: _377  and  _380
REMARK  160  A    between atoms: _380  and  _381
REMARK  161  A    between atoms: _386  and  _388
REMARK  162  A    between atoms: _388  and  _389
REMARK  163  A    between atoms: _388  and  _391
REMARK  164  A    between atoms: _391  and  _392
REMARK  165  A    between atoms: _395  and  _397
REMARK  166  A    between atoms: _397  and  _398
REMARK  167  A    between atoms: _397  and  _400
REMARK  168  A    between atoms: _400  and  _401
REMARK  169  A    between atoms: _403  and  _405
REMARK  170  A    between atoms: _405  and  _406
REMARK  171  A    between atoms: _405  and  _408
REMARK  172  A    between atoms: _408  and  _409
REMARK  173  A    between atoms: _409  and  _410
REMARK  174  A    between atoms: _410  and  _411
REMARK  175  A    between atoms: _411  and  _412
REMARK  176  A    between atoms: _416  and  _418
REMARK  177  A    between atoms: _418  and  _419
REMARK  178  A    between atoms: _418  and  _421
REMARK  179  A    between atoms: _421  and  _422
REMARK  180  A    between atoms: _425  and  _427
REMARK  181  A    between atoms: _427  and  _428
REMARK  182  A    between atoms: _427  and  _430
REMARK  183  A    between atoms: _430  and  _431
REMARK  184  A    between atoms: _431  and  _432
REMARK  185  A    between atoms: _435  and  _437
REMARK  186  A    between atoms: _437  and  _438
REMARK  187  A    between atoms: _441  and  _443
REMARK  188  A    between atoms: _443  and  _444
REMARK  189  A    between atoms: _443  and  _446
REMARK  190  A    between atoms: _449  and  _451
REMARK  191  A    between atoms: _451  and  _452
REMARK  192  A    between atoms: _451  and  _454
REMARK  193  A    between atoms: _454  and  _455
REMARK  194  A    between atoms: _457  and  _459
REMARK  195  A    between atoms: _459  and  _460
REMARK  196  A    between atoms: _462  and  _464
REMARK  197  A    between atoms: _464  and  _465
REMARK  198  A    between atoms: _464  and  _467
REMARK  199  A    between atoms: _467  and  _468
REMARK  200  A    between atoms: _473  and  _475
REMARK  201  A    between atoms: _475  and  _476
REMARK  202  A    between atoms: _475  and  _478
REMARK  203  A    between atoms: _478  and  _479
REMARK  204  A    between atoms: _484  and  _485
REMARK  205  A    between atoms: _487  and  _489
REMARK  206  A    between atoms: _489  and  _490
REMARK  207  A    between atoms: _489  and  _492
REMARK  208  A    between atoms: _494  and  _496
REMARK  209  A    between atoms: _496  and  _497
REMARK  210  A    between atoms: _496  and  _499
REMARK  211  A    between atoms: _499  and  _500
REMARK  212  A    between atoms: _503  and  _505
REMARK  213  A    between atoms: _505  and  _506
REMARK  214  A    between atoms: _505  and  _508
REMARK  215  A    between atoms: _508  and  _509
REMARK  216  A    between atoms: _512  and  _514
REMARK  217  A    between atoms: _514  and  _515
REMARK  218  A    between atoms: _514  and  _517
REMARK  219  A    between atoms: _517  and  _518
REMARK  220  A    between atoms: _518  and  _519
REMARK  221  A    between atoms: _519  and  _520
REMARK  222  A    between atoms: _520  and  _521
REMARK  223  A    between atoms: _525  and  _527
REMARK  224  A    between atoms: _527  and  _528
REMARK  225  A    between atoms: _527  and  _530
REMARK  226  A    between atoms: _530  and  _531
REMARK  227  A    between atoms: _531  and  _532
REMARK  228  A    between atoms: _532  and  _533
REMARK  229  A    between atoms: _533  and  _534
REMARK  230  A    between atoms: _538  and  _540
REMARK  231  A    between atoms: _540  and  _541
REMARK  232  A    between atoms: _540  and  _543
REMARK  233  A    between atoms: _543  and  _544
REMARK  234  A    between atoms: _544  and  _545
REMARK  235  A    between atoms: _545  and  _546
REMARK  236  A    between atoms: _555  and  _557
REMARK  237  A    between atoms: _557  and  _558
REMARK  238  A    between atoms: _557  and  _560
REMARK  239  A    between atoms: _560  and  _561
REMARK  240  A    between atoms: _564  and  _566
REMARK  241  A    between atoms: _566  and  _567
REMARK  242  A    between atoms: _570  and  _572
REMARK  243  A    between atoms: _572  and  _573
REMARK  244  A    between atoms: _572  and  _575
REMARK  245  A    between atoms: _575  and  _576
REMARK  246  A    between atoms: _576  and  _577
REMARK                            x       y       z     vdW  Elec       q    Type
REMARK                         _______ _______ _______ _____ _____    ______ ____
ROOT
ATOM      1  O   HOH     1     -11.855 -11.105  11.060  0.00  0.00    +0.000 OA
ENDROOT
TORSDOF 0
REMARK  Name = ../refined-set-2016/3cd7/3cd7_pocket.pdb
REMARK  246 active torsions:
REMARK  status: ('A' for Active; 'I' for Inactive)
REMARK    1  A    between atoms: _1  and  _3
REMARK    2  A    between atoms: _3  and  _4
REMARK    3  A    between atoms: _3  and  _6
REMARK    4  A    between atoms: _6  and  _7
REMARK    5  A    between atoms: _7  and  _8
REMARK    6  A    between atoms: _11  and  _13
REMARK    7  A    between atoms: _13  and  _14
REMARK    8  A    between atoms: _16  and  _18
REMARK    9  A    between atoms: _18  and  _19
REMARK   10  A    between atoms: _18  and  _21
REMARK   11  A    between atoms: _23  and  _25
REMARK   12  A    between atoms: _25  and  _26
REMARK   13  A    between atoms: _25  and  _28
REMARK   14  A    between atoms: _28  and  _29
REMARK   15  A    between atoms: _32  and  _34
REMARK   16  A    between atoms: _34  and  _35
REMARK   17  A    between atoms: _34  and  _37
REMARK   18  A    between atoms: _40  and  _42
REMARK   19  A    between atoms: _42  and  _43
REMARK   20  A    between atoms: _46  and  _48
REMARK   21  A    between atoms: _48  and  _49
REMARK   22  A    between atoms: _48  and  _51
REMARK   23  A    between atoms: _51  and  _52
REMARK   24  A    between atoms: _54  and  _56
REMARK   25  A    between atoms: _56  and  _57
REMARK   26  A    between atoms: _56  and  _59
REMARK   27  A    between atoms: _59  and  _60
REMARK   28  A    between atoms: _63  and  _65
REMARK   29  A    between atoms: _65  and  _66
REMARK   30  A    between atoms: _65  and  _68
REMARK   31  A    between atoms: _68  and  _69
REMARK   32  A    between atoms: _74  and  _76
REMARK   33  A    between atoms: _76  and  _77
REMARK   34  A    between atoms: _76  and  _79
REMARK   35  A    between atoms: _79  and  _80
REMARK   36  A    between atoms: _80  and  _81
REMARK   37  A    between atoms: _81  and  _82
REMARK   38  A    between atoms: _91  and  _93
REMARK   39  A    between atoms: _93  and  _94
REMARK   40  A    between atoms: _96  and  _98
REMARK   41  A    between atoms: _98  and  _99
REMARK   42  A    between atoms: _98  and  _101
REMARK   43  A    between atoms: _104  and  _106
REMARK   44  A    between atoms: _106  and  _107
REMARK   45  A    between atoms: _106  and  _109
REMARK   46  A    between atoms: _109  and  _110
REMARK   47  A    between atoms: _113  and  _115
REMARK   48  A    between atoms: _115  and  _116
REMARK   49  A    between atoms: _115  and  _118
REMARK   50  A    between atoms: _118  and  _119
REMARK   51  A    between atoms: _119  and  _120
REMARK   52  A    between atoms: _120  and  _121
REMARK   53  A    between atoms: _121  and  _122
REMARK   54  A    between atoms: _126  and  _128
REMARK   55  A    between atoms: _128  and  _129
REMARK   56  A    between atoms: _128  and  _131
REMARK   57  A    between atoms: _131  and  _132
REMARK   58  A    between atoms: _132  and  _133
REMARK   59  A    between atoms: _133  and  _134
REMARK   60  A    between atoms: _134  and  _135
REMARK   61  A    between atoms: _139  and  _141
REMARK   62  A    between atoms: _141  and  _142
REMARK   63  A    between atoms: _141  and  _144
REMARK   64  A    between atoms: _144  and  _145
REMARK   65  A    between atoms: _150  and  _152
REMARK   66  A    between atoms: _152  and  _153
REMARK   67  A    between atoms: _152  and  _155
REMARK   68  A    between atoms: _155  and  _156
REMARK   69  A    between atoms: _161  and  _163
REMARK   70  A    between atoms: _163  and  _164
REMARK   71  A    between atoms: _167  and  _169
REMARK   72  A    between atoms: _169  and  _170
REMARK   73  A    between atoms: _169  and  _172
REMARK   74  A    between atoms: _172  and  _173
REMARK   75  A    between atoms: _178  and  _180
REMARK   76  A    between atoms: _180  and  _181
REMARK   77  A    between atoms: _184  and  _186
REMARK   78  A    between atoms: _186  and  _187
REMARK   79  A    between atoms: _190  and  _192
REMARK   80  A    between atoms: _192  and  _193
REMARK   81  A    between atoms: _192  and  _195
REMARK   82  A    between atoms: _195  and  _196
REMARK   83  A    between atoms: _201  and  _203
REMARK   84  A    between atoms: _203  and  _204
REMARK   85  A    between atoms: _203  and  _206
REMARK   86  A    between atoms: _206  and  _207
REMARK   87  A    between atoms: _210  and  _212
REMARK   88  A    between atoms: _212  and  _213
REMARK   89  A    between atoms: _215  and  _217
REMARK   90  A    between atoms: _217  and  _218
REMARK   91  A    between atoms: _217  and  _220
REMARK   92  A    between atoms: _220  and  _221
REMARK   93  A    between atoms: _221  and  _222
REMARK   94  A    between atoms: _225  and  _227
REMARK   95  A    between atoms: _227  and  _228
REMARK   96  A    between atoms: _227  and  _230
REMARK   97  A    between atoms: _230  and  _231
REMARK   98  A    between atoms: _234  and  _236
REMARK   99  A    between atoms: _236  and  _237
REMARK  100  A    between atoms: _236  and  _239
REMARK  101  A    between atoms: _239  and  _240
REMARK  102  A    between atoms: _242  and  _244
REMARK  103  A    between atoms: _244  and  _245
REMARK  104  A    between atoms: _244  and  _247
REMARK  105  A    between atoms: _247  and  _248
REMARK  106  A    between atoms: _251  and  _253
REMARK  107  A    between atoms: _253  and  _254
REMARK  108  A    between atoms: _253  and  _256
REMARK  109  A    between atoms: _256  and  _257
REMARK  110  A    between atoms: _257  and  _258
REMARK  111  A    between atoms: _260  and  _262
REMARK  112  A    between atoms: _262  and  _263
REMARK  113  A    between atoms: _266  and  _268
REMARK  114  A    between atoms: _268  and  _269
REMARK  115  A    between atoms: _272  and  _274
REMARK  116  A    between atoms: _274  and  _275
REMARK  117  A    between atoms: _274  and  _277
REMARK  118  A    between atoms: _277  and  _278
REMARK  119  A    between atoms: _281  and  _283
REMARK  120  A    between atoms: _283  and  _284
REMARK  121  A    between atoms: _287  and  _289
REMARK  122  A    between atoms: _289  and  _290
REMARK  123  A    between atoms: _293  and  _295
REMARK  124  A    between atoms: _295  and  _296
REMARK  125  A    between atoms: _298  and  _300
REMARK  126  A    between atoms: _300  and  _301
REMARK  127  A    between atoms: _300  and  _303
REMARK  128  A    between atoms: _303  and  _304
REMARK  129  A    between atoms: _309  and  _311
REMARK  130  A    between atoms: _311  and  _312
REMARK  131  A    between atoms: _311  and  _314
REMARK  132  A    between atoms: _314  and  _315
REMARK  133  A    between atoms: _315  and  _316
REMARK  134  A    between atoms: _319  and  _321
REMARK  135  A    between atoms: _321  and  _322
REMARK  136  A    between atoms: _321  and  _324
REMARK  137  A    between atoms: _324  and  _325
REMARK  138  A    between atoms: _328  and  _330
REMARK  139  A    between atoms: _330  and  _331
REMARK  140  A    between atoms: _330  and  _333
REMARK  141  A    between atoms: _333  and  _334
REMARK  142  A    between atoms: _334  and  _335
REMARK  143  A    between atoms: _335  and  _336
REMARK  144  A    between atoms: _345  and  _347
REMARK  145  A    between atoms: _347  and  _348
REMARK  146  A    between atoms: _351  and  _352
REMARK  147  A    between atoms: _357  and  _359
REMARK  148  A    between atoms: _359  and  _360
REMARK  149  A    between atoms: _359  and  _362
REMARK  150  A    between atoms: _362  and  _363
REMARK  151  A    between atoms: _363  and  _364
REMARK  152  A    between atoms: _366  and  _368
REMARK  153  A    between atoms: _368  and  _369
REMARK  154  A    between atoms: _368  and  _371
REMARK  155  A    between atoms: _371  and  _372
REMARK  156  A    between atoms: _372  and  _373
REMARK  157  A    between atoms: _375  and  _377
REMARK  158  A    between atoms: _377  and  _378
REMARK  159  A    between atoms: _377  and  _380
REMARK  160  A    between atoms: _380  and  _381
REMARK  161  A    between atoms: _386  and  _388
REMARK  162  A    between atoms: _388  and  _389
REMARK  163  A    between atoms: _388  and  _391
REMARK  164  A    between atoms: _391  and  _392
REMARK  165  A    between atoms: _395  and  _397
REMARK  166  A    between atoms: _397  and  _398
REMARK  167  A    between atoms: _397  and  _400
REMARK  168  A    between atoms: _400  and  _401
REMARK  169  A    between atoms: _403  and  _405
REMARK  170  A    between atoms: _405  and  _406
REMARK  171  A    between atoms: _405  and  _408
REMARK  172  A    between atoms: _408  and  _409
REMARK  173  A    between atoms: _409  and  _410
REMARK  174  A    between atoms: _410  and  _411
REMARK  175  A    between atoms: _411  and  _412
REMARK  176  A    between atoms: _416  and  _418
REMARK  177  A    between atoms: _418  and  _419
REMARK  178  A    between atoms: _418  and  _421
REMARK  179  A    between atoms: _421  and  _422
REMARK  180  A    between atoms: _425  and  _427
REMARK  181  A    between atoms: _427  and  _428
REMARK  182  A    between atoms: _427  and  _430
REMARK  183  A    between atoms: _430  and  _431
REMARK  184  A    between atoms: _431  and  _432
REMARK  185  A    between atoms: _435  and  _437
REMARK  186  A    between atoms: _437  and  _438
REMARK  187  A    between atoms: _441  and  _443
REMARK  188  A    between atoms: _443  and  _444
REMARK  189  A    between atoms: _443  and  _446
REMARK  190  A    between atoms: _449  and  _451
REMARK  191  A    between atoms: _451  and  _452
REMARK  192  A    between atoms: _451  and  _454
REMARK  193  A    between atoms: _454  and  _455
REMARK  194  A    between atoms: _457  and  _459
REMARK  195  A    between atoms: _459  and  _460
REMARK  196  A    between atoms: _462  and  _464
REMARK  197  A    between atoms: _464  and  _465
REMARK  198  A    between atoms: _464  and  _467
REMARK  199  A    between atoms: _467  and  _468
REMARK  200  A    between atoms: _473  and  _475
REMARK  201  A    between atoms: _475  and  _476
REMARK  202  A    between atoms: _475  and  _478
REMARK  203  A    between atoms: _478  and  _479
REMARK  204  A    between atoms: _484  and  _485
REMARK  205  A    between atoms: _487  and  _489
REMARK  206  A    between atoms: _489  and  _490
REMARK  207  A    between atoms: _489  and  _492
REMARK  208  A    between atoms: _494  and  _496
REMARK  209  A    between atoms: _496  and  _497
REMARK  210  A    between atoms: _496  and  _499
REMARK  211  A    between atoms: _499  and  _500
REMARK  212  A    between atoms: _503  and  _505
REMARK  213  A    between atoms: _505  and  _506
REMARK  214  A    between atoms: _505  and  _508
REMARK  215  A    between atoms: _508  and  _509
REMARK  216  A    between atoms: _512  and  _514
REMARK  217  A    between atoms: _514  and  _515
REMARK  218  A    between atoms: _514  and  _517
REMARK  219  A    between atoms: _517  and  _518
REMARK  220  A    between atoms: _518  and  _519
REMARK  221  A    between atoms: _519  and  _520
REMARK  222  A    between atoms: _520  and  _521
REMARK  223  A    between atoms: _525  and  _527
REMARK  224  A    between atoms: _527  and  _528
REMARK  225  A    between atoms: _527  and  _530
REMARK  226  A    between atoms: _530  and  _531
REMARK  227  A    between atoms: _531  and  _532
REMARK  228  A    between atoms: _532  and  _533
REMARK  229  A    between atoms: _533  and  _534
REMARK  230  A    between atoms: _538  and  _540
REMARK  231  A    between atoms: _540  and  _541
REMARK  232  A    between atoms: _540  and  _543
REMARK  233  A    between atoms: _543  and  _544
REMARK  234  A    between atoms: _544  and  _545
REMARK  235  A    between atoms: _545  and  _546
REMARK  236  A    between atoms: _555  and  _557
REMARK  237  A    between atoms: _557  and  _558
REMARK  238  A    between atoms: _557  and  _560
REMARK  239  A    between atoms: _560  and  _561
REMARK  240  A    between atoms: _564  and  _566
REMARK  241  A    between atoms: _566  and  _567
REMARK  242  A    between atoms: _570  and  _572
REMARK  243  A    between atoms: _572  and  _573
REMARK  244  A    between atoms: _572  and  _575
REMARK  245  A    between atoms: _575  and  _576
REMARK  246  A    between atoms: _576  and  _577
REMARK                            x       y       z     vdW  Elec       q    Type
REMARK                         _______ _______ _______ _____ _____    ______ ____
ROOT
ATOM      1  O   HOH     1       0.534 -21.493   0.407  0.00  0.00    +0.000 OA
ENDROOT
TORSDOF 0
REMARK  Name = ../refined-set-2016/3cd7/3cd7_pocket.pdb
REMARK  246 active torsions:
REMARK  status: ('A' for Active; 'I' for Inactive)
REMARK    1  A    between atoms: _1  and  _3
REMARK    2  A    between atoms: _3  and  _4
REMARK    3  A    between atoms: _3  and  _6
REMARK    4  A    between atoms: _6  and  _7
REMARK    5  A    between atoms: _7  and  _8
REMARK    6  A    between atoms: _11  and  _13
REMARK    7  A    between atoms: _13  and  _14
REMARK    8  A    between atoms: _16  and  _18
REMARK    9  A    between atoms: _18  and  _19
REMARK   10  A    between atoms: _18  and  _21
REMARK   11  A    between atoms: _23  and  _25
REMARK   12  A    between atoms: _25  and  _26
REMARK   13  A    between atoms: _25  and  _28
REMARK   14  A    between atoms: _28  and  _29
REMARK   15  A    between atoms: _32  and  _34
REMARK   16  A    between atoms: _34  and  _35
REMARK   17  A    between atoms: _34  and  _37
REMARK   18  A    between atoms: _40  and  _42
REMARK   19  A    between atoms: _42  and  _43
REMARK   20  A    between atoms: _46  and  _48
REMARK   21  A    between atoms: _48  and  _49
REMARK   22  A    between atoms: _48  and  _51
REMARK   23  A    between atoms: _51  and  _52
REMARK   24  A    between atoms: _54  and  _56
REMARK   25  A    between atoms: _56  and  _57
REMARK   26  A    between atoms: _56  and  _59
REMARK   27  A    between atoms: _59  and  _60
REMARK   28  A    between atoms: _63  and  _65
REMARK   29  A    between atoms: _65  and  _66
REMARK   30  A    between atoms: _65  and  _68
REMARK   31  A    between atoms: _68  and  _69
REMARK   32  A    between atoms: _74  and  _76
REMARK   33  A    between atoms: _76  and  _77
REMARK   34  A    between atoms: _76  and  _79
REMARK   35  A    between atoms: _79  and  _80
REMARK   36  A    between atoms: _80  and  _81
REMARK   37  A    between atoms: _81  and  _82
REMARK   38  A    between atoms: _91  and  _93
REMARK   39  A    between atoms: _93  and  _94
REMARK   40  A    between atoms: _96  and  _98
REMARK   41  A    between atoms: _98  and  _99
REMARK   42  A    between atoms: _98  and  _101
REMARK   43  A    between atoms: _104  and  _106
REMARK   44  A    between atoms: _106  and  _107
REMARK   45  A    between atoms: _106  and  _109
REMARK   46  A    between atoms: _109  and  _110
REMARK   47  A    between atoms: _113  and  _115
REMARK   48  A    between atoms: _115  and  _116
REMARK   49  A    between atoms: _115  and  _118
REMARK   50  A    between atoms: _118  and  _119
REMARK   51  A    between atoms: _119  and  _120
REMARK   52  A    between atoms: _120  and  _121
REMARK   53  A    between atoms: _121  and  _122
REMARK   54  A    between atoms: _126  and  _128
REMARK   55  A    between atoms: _128  and  _129
REMARK   56  A    between atoms: _128  and  _131
REMARK   57  A    between atoms: _131  and  _132
REMARK   58  A    between atoms: _132  and  _133
REMARK   59  A    between atoms: _133  and  _134
REMARK   60  A    between atoms: _134  and  _135
REMARK   61  A    between atoms: _139  and  _141
REMARK   62  A    between atoms: _141  and  _142
REMARK   63  A    between atoms: _141  and  _144
REMARK   64  A    between atoms: _144  and  _145
REMARK   65  A    between atoms: _150  and  _152
REMARK   66  A    between atoms: _152  and  _153
REMARK   67  A    between atoms: _152  and  _155
REMARK   68  A    between atoms: _155  and  _156
REMARK   69  A    between atoms: _161  and  _163
REMARK   70  A    between atoms: _163  and  _164
REMARK   71  A    between atoms: _167  and  _169
REMARK   72  A    between atoms: _169  and  _170
REMARK   73  A    between atoms: _169  and  _172
REMARK   74  A    between atoms: _172  and  _173
REMARK   75  A    between atoms: _178  and  _180
REMARK   76  A    between atoms: _180  and  _181
REMARK   77  A    between atoms: _184  and  _186
REMARK   78  A    between atoms: _186  and  _187
REMARK   79  A    between atoms: _190  and  _192
REMARK   80  A    between atoms: _192  and  _193
REMARK   81  A    between atoms: _192  and  _195
REMARK   82  A    between atoms: _195  and  _196
REMARK   83  A    between atoms: _201  and  _203
REMARK   84  A    between atoms: _203  and  _204
REMARK   85  A    between atoms: _203  and  _206
REMARK   86  A    between atoms: _206  and  _207
REMARK   87  A    between atoms: _210  and  _212
REMARK   88  A    between atoms: _212  and  _213
REMARK   89  A    between atoms: _215  and  _217
REMARK   90  A    between atoms: _217  and  _218
REMARK   91  A    between atoms: _217  and  _220
REMARK   92  A    between atoms: _220  and  _221
REMARK   93  A    between atoms: _221  and  _222
REMARK   94  A    between atoms: _225  and  _227
REMARK   95  A    between atoms: _227  and  _228
REMARK   96  A    between atoms: _227  and  _230
REMARK   97  A    between atoms: _230  and  _231
REMARK   98  A    between atoms: _234  and  _236
REMARK   99  A    between atoms: _236  and  _237
REMARK  100  A    between atoms: _236  and  _239
REMARK  101  A    between atoms: _239  and  _240
REMARK  102  A    between atoms: _242  and  _244
REMARK  103  A    between atoms: _244  and  _245
REMARK  104  A    between atoms: _244  and  _247
REMARK  105  A    between atoms: _247  and  _248
REMARK  106  A    between atoms: _251  and  _253
REMARK  107  A    between atoms: _253  and  _254
REMARK  108  A    between atoms: _253  and  _256
REMARK  109  A    between atoms: _256  and  _257
REMARK  110  A    between atoms: _257  and  _258
REMARK  111  A    between atoms: _260  and  _262
REMARK  112  A    between atoms: _262  and  _263
REMARK  113  A    between atoms: _266  and  _268
REMARK  114  A    between atoms: _268  and  _269
REMARK  115  A    between atoms: _272  and  _274
REMARK  116  A    between atoms: _274  and  _275
REMARK  117  A    between atoms: _274  and  _277
REMARK  118  A    between atoms: _277  and  _278
REMARK  119  A    between atoms: _281  and  _283
REMARK  120  A    between atoms: _283  and  _284
REMARK  121  A    between atoms: _287  and  _289
REMARK  122  A    between atoms: _289  and  _290
REMARK  123  A    between atoms: _293  and  _295
REMARK  124  A    between atoms: _295  and  _296
REMARK  125  A    between atoms: _298  and  _300
REMARK  126  A    between atoms: _300  and  _301
REMARK  127  A    between atoms: _300  and  _303
REMARK  128  A    between atoms: _303  and  _304
REMARK  129  A    between atoms: _309  and  _311
REMARK  130  A    between atoms: _311  and  _312
REMARK  131  A    between atoms: _311  and  _314
REMARK  132  A    between atoms: _314  and  _315
REMARK  133  A    between atoms: _315  and  _316
REMARK  134  A    between atoms: _319  and  _321
REMARK  135  A    between atoms: _321  and  _322
REMARK  136  A    between atoms: _321  and  _324
REMARK  137  A    between atoms: _324  and  _325
REMARK  138  A    between atoms: _328  and  _330
REMARK  139  A    between atoms: _330  and  _331
REMARK  140  A    between atoms: _330  and  _333
REMARK  141  A    between atoms: _333  and  _334
REMARK  142  A    between atoms: _334  and  _335
REMARK  143  A    between atoms: _335  and  _336
REMARK  144  A    between atoms: _345  and  _347
REMARK  145  A    between atoms: _347  and  _348
REMARK  146  A    between atoms: _351  and  _352
REMARK  147  A    between atoms: _357  and  _359
REMARK  148  A    between atoms: _359  and  _360
REMARK  149  A    between atoms: _359  and  _362
REMARK  150  A    between atoms: _362  and  _363
REMARK  151  A    between atoms: _363  and  _364
REMARK  152  A    between atoms: _366  and  _368
REMARK  153  A    between atoms: _368  and  _369
REMARK  154  A    between atoms: _368  and  _371
REMARK  155  A    between atoms: _371  and  _372
REMARK  156  A    between atoms: _372  and  _373
REMARK  157  A    between atoms: _375  and  _377
REMARK  158  A    between atoms: _377  and  _378
REMARK  159  A    between atoms: _377  and  _380
REMARK  160  A    between atoms: _380  and  _381
REMARK  161  A    between atoms: _386  and  _388
REMARK  162  A    between atoms: _388  and  _389
REMARK  163  A    between atoms: _388  and  _391
REMARK  164  A    between atoms: _391  and  _392
REMARK  165  A    between atoms: _395  and  _397
REMARK  166  A    between atoms: _397  and  _398
REMARK  167  A    between atoms: _397  and  _400
REMARK  168  A    between atoms: _400  and  _401
REMARK  169  A    between atoms: _403  and  _405
REMARK  170  A    between atoms: _405  and  _406
REMARK  171  A    between atoms: _405  and  _408
REMARK  172  A    between atoms: _408  and  _409
REMARK  173  A    between atoms: _409  and  _410
REMARK  174  A    between atoms: _410  and  _411
REMARK  175  A    between atoms: _411  and  _412
REMARK  176  A    between atoms: _416  and  _418
REMARK  177  A    between atoms: _418  and  _419
REMARK  178  A    between atoms: _418  and  _421
REMARK  179  A    between atoms: _421  and  _422
REMARK  180  A    between atoms: _425  and  _427
REMARK  181  A    between atoms: _427  and  _428
REMARK  182  A    between atoms: _427  and  _430
REMARK  183  A    between atoms: _430  and  _431
REMARK  184  A    between atoms: _431  and  _432
REMARK  185  A    between atoms: _435  and  _437
REMARK  186  A    between atoms: _437  and  _438
REMARK  187  A    between atoms: _441  and  _443
REMARK  188  A    between atoms: _443  and  _444
REMARK  189  A    between atoms: _443  and  _446
REMARK  190  A    between atoms: _449  and  _451
REMARK  191  A    between atoms: _451  and  _452
REMARK  192  A    between atoms: _451  and  _454
REMARK  193  A    between atoms: _454  and  _455
REMARK  194  A    between atoms: _457  and  _459
REMARK  195  A    between atoms: _459  and  _460
REMARK  196  A    between atoms: _462  and  _464
REMARK  197  A    between atoms: _464  and  _465
REMARK  198  A    between atoms: _464  and  _467
REMARK  199  A    between atoms: _467  and  _468
REMARK  200  A    between atoms: _473  and  _475
REMARK  201  A    between atoms: _475  and  _476
REMARK  202  A    between atoms: _475  and  _478
REMARK  203  A    between atoms: _478  and  _479
REMARK  204  A    between atoms: _484  and  _485
REMARK  205  A    between atoms: _487  and  _489
REMARK  206  A    between atoms: _489  and  _490
REMARK  207  A    between atoms: _489  and  _492
REMARK  208  A    between atoms: _494  and  _496
REMARK  209  A    between atoms: _496  and  _497
REMARK  210  A    between atoms: _496  and  _499
REMARK  211  A    between atoms: _499  and  _500
REMARK  212  A    between atoms: _503  and  _505
REMARK  213  A    between atoms: _505  and  _506
REMARK  214  A    between atoms: _505  and  _508
REMARK  215  A    between atoms: _508  and  _509
REMARK  216  A    between atoms: _512  and  _514
REMARK  217  A    between atoms: _514  and  _515
REMARK  218  A    between atoms: _514  and  _517
REMARK  219  A    between atoms: _517  and  _518
REMARK  220  A    between atoms: _518  and  _519
REMARK  221  A    between atoms: _519  and  _520
REMARK  222  A    between atoms: _520  and  _521
REMARK  223  A    between atoms: _525  and  _527
REMARK  224  A    between atoms: _527  and  _528
REMARK  225  A    between atoms: _527  and  _530
REMARK  226  A    between atoms: _530  and  _531
REMARK  227  A    between atoms: _531  and  _532
REMARK  228  A    between atoms: _532  and  _533
REMARK  229  A    between atoms: _533  and  _534
REMARK  230  A    between atoms: _538  and  _540
REMARK  231  A    between atoms: _540  and  _541
REMARK  232  A    between atoms: _540  and  _543
REMARK  233  A    between atoms: _543  and  _544
REMARK  234  A    between atoms: _544  and  _545
REMARK  235  A    between atoms: _545  and  _546
REMARK  236  A    between atoms: _555  and  _557
REMARK  237  A    between atoms: _557  and  _558
REMARK  238  A    between atoms: _557  and  _560
REMARK  239  A    between atoms: _560  and  _561
REMARK  240  A    between atoms: _564  and  _566
REMARK  241  A    between atoms: _566  and  _567
REMARK  242  A    between atoms: _570  and  _572
REMARK  243  A    between atoms: _572  and  _573
REMARK  244  A    between atoms: _572  and  _575
REMARK  245  A    between atoms: _575  and  _576
REMARK  246  A    between atoms: _576  and  _577
REMARK                            x       y       z     vdW  Elec       q    Type
REMARK                         _______ _______ _______ _____ _____    ______ ____
ROOT
ATOM      1  O   HOH     1       5.415 -21.310   6.067  0.00  0.00    +0.000 OA
ENDROOT
TORSDOF 0
REMARK  Name = ../refined-set-2016/3cd7/3cd7_pocket.pdb
REMARK  246 active torsions:
REMARK  status: ('A' for Active; 'I' for Inactive)
REMARK    1  A    between atoms: _1  and  _3
REMARK    2  A    between atoms: _3  and  _4
REMARK    3  A    between atoms: _3  and  _6
REMARK    4  A    between atoms: _6  and  _7
REMARK    5  A    between atoms: _7  and  _8
REMARK    6  A    between atoms: _11  and  _13
REMARK    7  A    between atoms: _13  and  _14
REMARK    8  A    between atoms: _16  and  _18
REMARK    9  A    between atoms: _18  and  _19
REMARK   10  A    between atoms: _18  and  _21
REMARK   11  A    between atoms: _23  and  _25
REMARK   12  A    between atoms: _25  and  _26
REMARK   13  A    between atoms: _25  and  _28
REMARK   14  A    between atoms: _28  and  _29
REMARK   15  A    between atoms: _32  and  _34
REMARK   16  A    between atoms: _34  and  _35
REMARK   17  A    between atoms: _34  and  _37
REMARK   18  A    between atoms: _40  and  _42
REMARK   19  A    between atoms: _42  and  _43
REMARK   20  A    between atoms: _46  and  _48
REMARK   21  A    between atoms: _48  and  _49
REMARK   22  A    between atoms: _48  and  _51
REMARK   23  A    between atoms: _51  and  _52
REMARK   24  A    between atoms: _54  and  _56
REMARK   25  A    between atoms: _56  and  _57
REMARK   26  A    between atoms: _56  and  _59
REMARK   27  A    between atoms: _59  and  _60
REMARK   28  A    between atoms: _63  and  _65
REMARK   29  A    between atoms: _65  and  _66
REMARK   30  A    between atoms: _65  and  _68
REMARK   31  A    between atoms: _68  and  _69
REMARK   32  A    between atoms: _74  and  _76
REMARK   33  A    between atoms: _76  and  _77
REMARK   34  A    between atoms: _76  and  _79
REMARK   35  A    between atoms: _79  and  _80
REMARK   36  A    between atoms: _80  and  _81
REMARK   37  A    between atoms: _81  and  _82
REMARK   38  A    between atoms: _91  and  _93
REMARK   39  A    between atoms: _93  and  _94
REMARK   40  A    between atoms: _96  and  _98
REMARK   41  A    between atoms: _98  and  _99
REMARK   42  A    between atoms: _98  and  _101
REMARK   43  A    between atoms: _104  and  _106
REMARK   44  A    between atoms: _106  and  _107
REMARK   45  A    between atoms: _106  and  _109
REMARK   46  A    between atoms: _109  and  _110
REMARK   47  A    between atoms: _113  and  _115
REMARK   48  A    between atoms: _115  and  _116
REMARK   49  A    between atoms: _115  and  _118
REMARK   50  A    between atoms: _118  and  _119
REMARK   51  A    between atoms: _119  and  _120
REMARK   52  A    between atoms: _120  and  _121
REMARK   53  A    between atoms: _121  and  _122
REMARK   54  A    between atoms: _126  and  _128
REMARK   55  A    between atoms: _128  and  _129
REMARK   56  A    between atoms: _128  and  _131
REMARK   57  A    between atoms: _131  and  _132
REMARK   58  A    between atoms: _132  and  _133
REMARK   59  A    between atoms: _133  and  _134
REMARK   60  A    between atoms: _134  and  _135
REMARK   61  A    between atoms: _139  and  _141
REMARK   62  A    between atoms: _141  and  _142
REMARK   63  A    between atoms: _141  and  _144
REMARK   64  A    between atoms: _144  and  _145
REMARK   65  A    between atoms: _150  and  _152
REMARK   66  A    between atoms: _152  and  _153
REMARK   67  A    between atoms: _152  and  _155
REMARK   68  A    between atoms: _155  and  _156
REMARK   69  A    between atoms: _161  and  _163
REMARK   70  A    between atoms: _163  and  _164
REMARK   71  A    between atoms: _167  and  _169
REMARK   72  A    between atoms: _169  and  _170
REMARK   73  A    between atoms: _169  and  _172
REMARK   74  A    between atoms: _172  and  _173
REMARK   75  A    between atoms: _178  and  _180
REMARK   76  A    between atoms: _180  and  _181
REMARK   77  A    between atoms: _184  and  _186
REMARK   78  A    between atoms: _186  and  _187
REMARK   79  A    between atoms: _190  and  _192
REMARK   80  A    between atoms: _192  and  _193
REMARK   81  A    between atoms: _192  and  _195
REMARK   82  A    between atoms: _195  and  _196
REMARK   83  A    between atoms: _201  and  _203
REMARK   84  A    between atoms: _203  and  _204
REMARK   85  A    between atoms: _203  and  _206
REMARK   86  A    between atoms: _206  and  _207
REMARK   87  A    between atoms: _210  and  _212
REMARK   88  A    between atoms: _212  and  _213
REMARK   89  A    between atoms: _215  and  _217
REMARK   90  A    between atoms: _217  and  _218
REMARK   91  A    between atoms: _217  and  _220
REMARK   92  A    between atoms: _220  and  _221
REMARK   93  A    between atoms: _221  and  _222
REMARK   94  A    between atoms: _225  and  _227
REMARK   95  A    between atoms: _227  and  _228
REMARK   96  A    between atoms: _227  and  _230
REMARK   97  A    between atoms: _230  and  _231
REMARK   98  A    between atoms: _234  and  _236
REMARK   99  A    between atoms: _236  and  _237
REMARK  100  A    between atoms: _236  and  _239
REMARK  101  A    between atoms: _239  and  _240
REMARK  102  A    between atoms: _242  and  _244
REMARK  103  A    between atoms: _244  and  _245
REMARK  104  A    between atoms: _244  and  _247
REMARK  105  A    between atoms: _247  and  _248
REMARK  106  A    between atoms: _251  and  _253
REMARK  107  A    between atoms: _253  and  _254
REMARK  108  A    between atoms: _253  and  _256
REMARK  109  A    between atoms: _256  and  _257
REMARK  110  A    between atoms: _257  and  _258
REMARK  111  A    between atoms: _260  and  _262
REMARK  112  A    between atoms: _262  and  _263
REMARK  113  A    between atoms: _266  and  _268
REMARK  114  A    between atoms: _268  and  _269
REMARK  115  A    between atoms: _272  and  _274
REMARK  116  A    between atoms: _274  and  _275
REMARK  117  A    between atoms: _274  and  _277
REMARK  118  A    between atoms: _277  and  _278
REMARK  119  A    between atoms: _281  and  _283
REMARK  120  A    between atoms: _283  and  _284
REMARK  121  A    between atoms: _287  and  _289
REMARK  122  A    between atoms: _289  and  _290
REMARK  123  A    between atoms: _293  and  _295
REMARK  124  A    between atoms: _295  and  _296
REMARK  125  A    between atoms: _298  and  _300
REMARK  126  A    between atoms: _300  and  _301
REMARK  127  A    between atoms: _300  and  _303
REMARK  128  A    between atoms: _303  and  _304
REMARK  129  A    between atoms: _309  and  _311
REMARK  130  A    between atoms: _311  and  _312
REMARK  131  A    between atoms: _311  and  _314
REMARK  132  A    between atoms: _314  and  _315
REMARK  133  A    between atoms: _315  and  _316
REMARK  134  A    between atoms: _319  and  _321
REMARK  135  A    between atoms: _321  and  _322
REMARK  136  A    between atoms: _321  and  _324
REMARK  137  A    between atoms: _324  and  _325
REMARK  138  A    between atoms: _328  and  _330
REMARK  139  A    between atoms: _330  and  _331
REMARK  140  A    between atoms: _330  and  _333
REMARK  141  A    between atoms: _333  and  _334
REMARK  142  A    between atoms: _334  and  _335
REMARK  143  A    between atoms: _335  and  _336
REMARK  144  A    between atoms: _345  and  _347
REMARK  145  A    between atoms: _347  and  _348
REMARK  146  A    between atoms: _351  and  _352
REMARK  147  A    between atoms: _357  and  _359
REMARK  148  A    between atoms: _359  and  _360
REMARK  149  A    between atoms: _359  and  _362
REMARK  150  A    between atoms: _362  and  _363
REMARK  151  A    between atoms: _363  and  _364
REMARK  152  A    between atoms: _366  and  _368
REMARK  153  A    between atoms: _368  and  _369
REMARK  154  A    between atoms: _368  and  _371
REMARK  155  A    between atoms: _371  and  _372
REMARK  156  A    between atoms: _372  and  _373
REMARK  157  A    between atoms: _375  and  _377
REMARK  158  A    between atoms: _377  and  _378
REMARK  159  A    between atoms: _377  and  _380
REMARK  160  A    between atoms: _380  and  _381
REMARK  161  A    between atoms: _386  and  _388
REMARK  162  A    between atoms: _388  and  _389
REMARK  163  A    between atoms: _388  and  _391
REMARK  164  A    between atoms: _391  and  _392
REMARK  165  A    between atoms: _395  and  _397
REMARK  166  A    between atoms: _397  and  _398
REMARK  167  A    between atoms: _397  and  _400
REMARK  168  A    between atoms: _400  and  _401
REMARK  169  A    between atoms: _403  and  _405
REMARK  170  A    between atoms: _405  and  _406
REMARK  171  A    between atoms: _405  and  _408
REMARK  172  A    between atoms: _408  and  _409
REMARK  173  A    between atoms: _409  and  _410
REMARK  174  A    between atoms: _410  and  _411
REMARK  175  A    between atoms: _411  and  _412
REMARK  176  A    between atoms: _416  and  _418
REMARK  177  A    between atoms: _418  and  _419
REMARK  178  A    between atoms: _418  and  _421
REMARK  179  A    between atoms: _421  and  _422
REMARK  180  A    between atoms: _425  and  _427
REMARK  181  A    between atoms: _427  and  _428
REMARK  182  A    between atoms: _427  and  _430
REMARK  183  A    between atoms: _430  and  _431
REMARK  184  A    between atoms: _431  and  _432
REMARK  185  A    between atoms: _435  and  _437
REMARK  186  A    between atoms: _437  and  _438
REMARK  187  A    between atoms: _441  and  _443
REMARK  188  A    between atoms: _443  and  _444
REMARK  189  A    between atoms: _443  and  _446
REMARK  190  A    between atoms: _449  and  _451
REMARK  191  A    between atoms: _451  and  _452
REMARK  192  A    between atoms: _451  and  _454
REMARK  193  A    between atoms: _454  and  _455
REMARK  194  A    between atoms: _457  and  _459
REMARK  195  A    between atoms: _459  and  _460
REMARK  196  A    between atoms: _462  and  _464
REMARK  197  A    between atoms: _464  and  _465
REMARK  198  A    between atoms: _464  and  _467
REMARK  199  A    between atoms: _467  and  _468
REMARK  200  A    between atoms: _473  and  _475
REMARK  201  A    between atoms: _475  and  _476
REMARK  202  A    between atoms: _475  and  _478
REMARK  203  A    between atoms: _478  and  _479
REMARK  204  A    between atoms: _484  and  _485
REMARK  205  A    between atoms: _487  and  _489
REMARK  206  A    between atoms: _489  and  _490
REMARK  207  A    between atoms: _489  and  _492
REMARK  208  A    between atoms: _494  and  _496
REMARK  209  A    between atoms: _496  and  _497
REMARK  210  A    between atoms: _496  and  _499
REMARK  211  A    between atoms: _499  and  _500
REMARK  212  A    between atoms: _503  and  _505
REMARK  213  A    between atoms: _505  and  _506
REMARK  214  A    between atoms: _505  and  _508
REMARK  215  A    between atoms: _508  and  _509
REMARK  216  A    between atoms: _512  and  _514
REMARK  217  A    between atoms: _514  and  _515
REMARK  218  A    between atoms: _514  and  _517
REMARK  219  A    between atoms: _517  and  _518
REMARK  220  A    between atoms: _518  and  _519
REMARK  221  A    between atoms: _519  and  _520
REMARK  222  A    between atoms: _520  and  _521
REMARK  223  A    between atoms: _525  and  _527
REMARK  224  A    between atoms: _527  and  _528
REMARK  225  A    between atoms: _527  and  _530
REMARK  226  A    between atoms: _530  and  _531
REMARK  227  A    between atoms: _531  and  _532
REMARK  228  A    between atoms: _532  and  _533
REMARK  229  A    between atoms: _533  and  _534
REMARK  230  A    between atoms: _538  and  _540
REMARK  231  A    between atoms: _540  and  _541
REMARK  232  A    between atoms: _540  and  _543
REMARK  233  A    between atoms: _543  and  _544
REMARK  234  A    between atoms: _544  and  _545
REMARK  235  A    between atoms: _545  and  _546
REMARK  236  A    between atoms: _555  and  _557
REMARK  237  A    between atoms: _557  and  _558
REMARK  238  A    between atoms: _557  and  _560
REMARK  239  A    between atoms: _560  and  _561
REMARK  240  A    between atoms: _564  and  _566
REMARK  241  A    between atoms: _566  and  _567
REMARK  242  A    between atoms: _570  and  _572
REMARK  243  A    between atoms: _572  and  _573
REMARK  244  A    between atoms: _572  and  _575
REMARK  245  A    between atoms: _575  and  _576
REMARK  246  A    between atoms: _576  and  _577
REMARK                            x       y       z     vdW  Elec       q    Type
REMARK                         _______ _______ _______ _____ _____    ______ ____
ROOT
ATOM      1  O   HOH     1     -12.558 -11.116   1.481  0.00  0.00    +0.000 OA
ENDROOT
TORSDOF 0
REMARK  Name = ../refined-set-2016/3cd7/3cd7_pocket.pdb
REMARK  246 active torsions:
REMARK  status: ('A' for Active; 'I' for Inactive)
REMARK    1  A    between atoms: _1  and  _3
REMARK    2  A    between atoms: _3  and  _4
REMARK    3  A    between atoms: _3  and  _6
REMARK    4  A    between atoms: _6  and  _7
REMARK    5  A    between atoms: _7  and  _8
REMARK    6  A    between atoms: _11  and  _13
REMARK    7  A    between atoms: _13  and  _14
REMARK    8  A    between atoms: _16  and  _18
REMARK    9  A    between atoms: _18  and  _19
REMARK   10  A    between atoms: _18  and  _21
REMARK   11  A    between atoms: _23  and  _25
REMARK   12  A    between atoms: _25  and  _26
REMARK   13  A    between atoms: _25  and  _28
REMARK   14  A    between atoms: _28  and  _29
REMARK   15  A    between atoms: _32  and  _34
REMARK   16  A    between atoms: _34  and  _35
REMARK   17  A    between atoms: _34  and  _37
REMARK   18  A    between atoms: _40  and  _42
REMARK   19  A    between atoms: _42  and  _43
REMARK   20  A    between atoms: _46  and  _48
REMARK   21  A    between atoms: _48  and  _49
REMARK   22  A    between atoms: _48  and  _51
REMARK   23  A    between atoms: _51  and  _52
REMARK   24  A    between atoms: _54  and  _56
REMARK   25  A    between atoms: _56  and  _57
REMARK   26  A    between atoms: _56  and  _59
REMARK   27  A    between atoms: _59  and  _60
REMARK   28  A    between atoms: _63  and  _65
REMARK   29  A    between atoms: _65  and  _66
REMARK   30  A    between atoms: _65  and  _68
REMARK   31  A    between atoms: _68  and  _69
REMARK   32  A    between atoms: _74  and  _76
REMARK   33  A    between atoms: _76  and  _77
REMARK   34  A    between atoms: _76  and  _79
REMARK   35  A    between atoms: _79  and  _80
REMARK   36  A    between atoms: _80  and  _81
REMARK   37  A    between atoms: _81  and  _82
REMARK   38  A    between atoms: _91  and  _93
REMARK   39  A    between atoms: _93  and  _94
REMARK   40  A    between atoms: _96  and  _98
REMARK   41  A    between atoms: _98  and  _99
REMARK   42  A    between atoms: _98  and  _101
REMARK   43  A    between atoms: _104  and  _106
REMARK   44  A    between atoms: _106  and  _107
REMARK   45  A    between atoms: _106  and  _109
REMARK   46  A    between atoms: _109  and  _110
REMARK   47  A    between atoms: _113  and  _115
REMARK   48  A    between atoms: _115  and  _116
REMARK   49  A    between atoms: _115  and  _118
REMARK   50  A    between atoms: _118  and  _119
REMARK   51  A    between atoms: _119  and  _120
REMARK   52  A    between atoms: _120  and  _121
REMARK   53  A    between atoms: _121  and  _122
REMARK   54  A    between atoms: _126  and  _128
REMARK   55  A    between atoms: _128  and  _129
REMARK   56  A    between atoms: _128  and  _131
REMARK   57  A    between atoms: _131  and  _132
REMARK   58  A    between atoms: _132  and  _133
REMARK   59  A    between atoms: _133  and  _134
REMARK   60  A    between atoms: _134  and  _135
REMARK   61  A    between atoms: _139  and  _141
REMARK   62  A    between atoms: _141  and  _142
REMARK   63  A    between atoms: _141  and  _144
REMARK   64  A    between atoms: _144  and  _145
REMARK   65  A    between atoms: _150  and  _152
REMARK   66  A    between atoms: _152  and  _153
REMARK   67  A    between atoms: _152  and  _155
REMARK   68  A    between atoms: _155  and  _156
REMARK   69  A    between atoms: _161  and  _163
REMARK   70  A    between atoms: _163  and  _164
REMARK   71  A    between atoms: _167  and  _169
REMARK   72  A    between atoms: _169  and  _170
REMARK   73  A    between atoms: _169  and  _172
REMARK   74  A    between atoms: _172  and  _173
REMARK   75  A    between atoms: _178  and  _180
REMARK   76  A    between atoms: _180  and  _181
REMARK   77  A    between atoms: _184  and  _186
REMARK   78  A    between atoms: _186  and  _187
REMARK   79  A    between atoms: _190  and  _192
REMARK   80  A    between atoms: _192  and  _193
REMARK   81  A    between atoms: _192  and  _195
REMARK   82  A    between atoms: _195  and  _196
REMARK   83  A    between atoms: _201  and  _203
REMARK   84  A    between atoms: _203  and  _204
REMARK   85  A    between atoms: _203  and  _206
REMARK   86  A    between atoms: _206  and  _207
REMARK   87  A    between atoms: _210  and  _212
REMARK   88  A    between atoms: _212  and  _213
REMARK   89  A    between atoms: _215  and  _217
REMARK   90  A    between atoms: _217  and  _218
REMARK   91  A    between atoms: _217  and  _220
REMARK   92  A    between atoms: _220  and  _221
REMARK   93  A    between atoms: _221  and  _222
REMARK   94  A    between atoms: _225  and  _227
REMARK   95  A    between atoms: _227  and  _228
REMARK   96  A    between atoms: _227  and  _230
REMARK   97  A    between atoms: _230  and  _231
REMARK   98  A    between atoms: _234  and  _236
REMARK   99  A    between atoms: _236  and  _237
REMARK  100  A    between atoms: _236  and  _239
REMARK  101  A    between atoms: _239  and  _240
REMARK  102  A    between atoms: _242  and  _244
REMARK  103  A    between atoms: _244  and  _245
REMARK  104  A    between atoms: _244  and  _247
REMARK  105  A    between atoms: _247  and  _248
REMARK  106  A    between atoms: _251  and  _253
REMARK  107  A    between atoms: _253  and  _254
REMARK  108  A    between atoms: _253  and  _256
REMARK  109  A    between atoms: _256  and  _257
REMARK  110  A    between atoms: _257  and  _258
REMARK  111  A    between atoms: _260  and  _262
REMARK  112  A    between atoms: _262  and  _263
REMARK  113  A    between atoms: _266  and  _268
REMARK  114  A    between atoms: _268  and  _269
REMARK  115  A    between atoms: _272  and  _274
REMARK  116  A    between atoms: _274  and  _275
REMARK  117  A    between atoms: _274  and  _277
REMARK  118  A    between atoms: _277  and  _278
REMARK  119  A    between atoms: _281  and  _283
REMARK  120  A    between atoms: _283  and  _284
REMARK  121  A    between atoms: _287  and  _289
REMARK  122  A    between atoms: _289  and  _290
REMARK  123  A    between atoms: _293  and  _295
REMARK  124  A    between atoms: _295  and  _296
REMARK  125  A    between atoms: _298  and  _300
REMARK  126  A    between atoms: _300  and  _301
REMARK  127  A    between atoms: _300  and  _303
REMARK  128  A    between atoms: _303  and  _304
REMARK  129  A    between atoms: _309  and  _311
REMARK  130  A    between atoms: _311  and  _312
REMARK  131  A    between atoms: _311  and  _314
REMARK  132  A    between atoms: _314  and  _315
REMARK  133  A    between atoms: _315  and  _316
REMARK  134  A    between atoms: _319  and  _321
REMARK  135  A    between atoms: _321  and  _322
REMARK  136  A    between atoms: _321  and  _324
REMARK  137  A    between atoms: _324  and  _325
REMARK  138  A    between atoms: _328  and  _330
REMARK  139  A    between atoms: _330  and  _331
REMARK  140  A    between atoms: _330  and  _333
REMARK  141  A    between atoms: _333  and  _334
REMARK  142  A    between atoms: _334  and  _335
REMARK  143  A    between atoms: _335  and  _336
REMARK  144  A    between atoms: _345  and  _347
REMARK  145  A    between atoms: _347  and  _348
REMARK  146  A    between atoms: _351  and  _352
REMARK  147  A    between atoms: _357  and  _359
REMARK  148  A    between atoms: _359  and  _360
REMARK  149  A    between atoms: _359  and  _362
REMARK  150  A    between atoms: _362  and  _363
REMARK  151  A    between atoms: _363  and  _364
REMARK  152  A    between atoms: _366  and  _368
REMARK  153  A    between atoms: _368  and  _369
REMARK  154  A    between atoms: _368  and  _371
REMARK  155  A    between atoms: _371  and  _372
REMARK  156  A    between atoms: _372  and  _373
REMARK  157  A    between atoms: _375  and  _377
REMARK  158  A    between atoms: _377  and  _378
REMARK  159  A    between atoms: _377  and  _380
REMARK  160  A    between atoms: _380  and  _381
REMARK  161  A    between atoms: _386  and  _388
REMARK  162  A    between atoms: _388  and  _389
REMARK  163  A    between atoms: _388  and  _391
REMARK  164  A    between atoms: _391  and  _392
REMARK  165  A    between atoms: _395  and  _397
REMARK  166  A    between atoms: _397  and  _398
REMARK  167  A    between atoms: _397  and  _400
REMARK  168  A    between atoms: _400  and  _401
REMARK  169  A    between atoms: _403  and  _405
REMARK  170  A    between atoms: _405  and  _406
REMARK  171  A    between atoms: _405  and  _408
REMARK  172  A    between atoms: _408  and  _409
REMARK  173  A    between atoms: _409  and  _410
REMARK  174  A    between atoms: _410  and  _411
REMARK  175  A    between atoms: _411  and  _412
REMARK  176  A    between atoms: _416  and  _418
REMARK  177  A    between atoms: _418  and  _419
REMARK  178  A    between atoms: _418  and  _421
REMARK  179  A    between atoms: _421  and  _422
REMARK  180  A    between atoms: _425  and  _427
REMARK  181  A    between atoms: _427  and  _428
REMARK  182  A    between atoms: _427  and  _430
REMARK  183  A    between atoms: _430  and  _431
REMARK  184  A    between atoms: _431  and  _432
REMARK  185  A    between atoms: _435  and  _437
REMARK  186  A    between atoms: _437  and  _438
REMARK  187  A    between atoms: _441  and  _443
REMARK  188  A    between atoms: _443  and  _444
REMARK  189  A    between atoms: _443  and  _446
REMARK  190  A    between atoms: _449  and  _451
REMARK  191  A    between atoms: _451  and  _452
REMARK  192  A    between atoms: _451  and  _454
REMARK  193  A    between atoms: _454  and  _455
REMARK  194  A    between atoms: _457  and  _459
REMARK  195  A    between atoms: _459  and  _460
REMARK  196  A    between atoms: _462  and  _464
REMARK  197  A    between atoms: _464  and  _465
REMARK  198  A    between atoms: _464  and  _467
REMARK  199  A    between atoms: _467  and  _468
REMARK  200  A    between atoms: _473  and  _475
REMARK  201  A    between atoms: _475  and  _476
REMARK  202  A    between atoms: _475  and  _478
REMARK  203  A    between atoms: _478  and  _479
REMARK  204  A    between atoms: _484  and  _485
REMARK  205  A    between atoms: _487  and  _489
REMARK  206  A    between atoms: _489  and  _490
REMARK  207  A    between atoms: _489  and  _492
REMARK  208  A    between atoms: _494  and  _496
REMARK  209  A    between atoms: _496  and  _497
REMARK  210  A    between atoms: _496  and  _499
REMARK  211  A    between atoms: _499  and  _500
REMARK  212  A    between atoms: _503  and  _505
REMARK  213  A    between atoms: _505  and  _506
REMARK  214  A    between atoms: _505  and  _508
REMARK  215  A    between atoms: _508  and  _509
REMARK  216  A    between atoms: _512  and  _514
REMARK  217  A    between atoms: _514  and  _515
REMARK  218  A    between atoms: _514  and  _517
REMARK  219  A    between atoms: _517  and  _518
REMARK  220  A    between atoms: _518  and  _519
REMARK  221  A    between atoms: _519  and  _520
REMARK  222  A    between atoms: _520  and  _521
REMARK  223  A    between atoms: _525  and  _527
REMARK  224  A    between atoms: _527  and  _528
REMARK  225  A    between atoms: _527  and  _530
REMARK  226  A    between atoms: _530  and  _531
REMARK  227  A    between atoms: _531  and  _532
REMARK  228  A    between atoms: _532  and  _533
REMARK  229  A    between atoms: _533  and  _534
REMARK  230  A    between atoms: _538  and  _540
REMARK  231  A    between atoms: _540  and  _541
REMARK  232  A    between atoms: _540  and  _543
REMARK  233  A    between atoms: _543  and  _544
REMARK  234  A    between atoms: _544  and  _545
REMARK  235  A    between atoms: _545  and  _546
REMARK  236  A    between atoms: _555  and  _557
REMARK  237  A    between atoms: _557  and  _558
REMARK  238  A    between atoms: _557  and  _560
REMARK  239  A    between atoms: _560  and  _561
REMARK  240  A    between atoms: _564  and  _566
REMARK  241  A    between atoms: _566  and  _567
REMARK  242  A    between atoms: _570  and  _572
REMARK  243  A    between atoms: _572  and  _573
REMARK  244  A    between atoms: _572  and  _575
REMARK  245  A    between atoms: _575  and  _576
REMARK  246  A    between atoms: _576  and  _577
REMARK                            x       y       z     vdW  Elec       q    Type
REMARK                         _______ _______ _______ _____ _____    ______ ____
ROOT
ATOM      1  O   HOH     1     -14.057 -13.375   4.149  0.00  0.00    +0.000 OA
ENDROOT
TORSDOF 0
REMARK  Name = ../refined-set-2016/3cd7/3cd7_pocket.pdb
REMARK  246 active torsions:
REMARK  status: ('A' for Active; 'I' for Inactive)
REMARK    1  A    between atoms: _1  and  _3
REMARK    2  A    between atoms: _3  and  _4
REMARK    3  A    between atoms: _3  and  _6
REMARK    4  A    between atoms: _6  and  _7
REMARK    5  A    between atoms: _7  and  _8
REMARK    6  A    between atoms: _11  and  _13
REMARK    7  A    between atoms: _13  and  _14
REMARK    8  A    between atoms: _16  and  _18
REMARK    9  A    between atoms: _18  and  _19
REMARK   10  A    between atoms: _18  and  _21
REMARK   11  A    between atoms: _23  and  _25
REMARK   12  A    between atoms: _25  and  _26
REMARK   13  A    between atoms: _25  and  _28
REMARK   14  A    between atoms: _28  and  _29
REMARK   15  A    between atoms: _32  and  _34
REMARK   16  A    between atoms: _34  and  _35
REMARK   17  A    between atoms: _34  and  _37
REMARK   18  A    between atoms: _40  and  _42
REMARK   19  A    between atoms: _42  and  _43
REMARK   20  A    between atoms: _46  and  _48
REMARK   21  A    between atoms: _48  and  _49
REMARK   22  A    between atoms: _48  and  _51
REMARK   23  A    between atoms: _51  and  _52
REMARK   24  A    between atoms: _54  and  _56
REMARK   25  A    between atoms: _56  and  _57
REMARK   26  A    between atoms: _56  and  _59
REMARK   27  A    between atoms: _59  and  _60
REMARK   28  A    between atoms: _63  and  _65
REMARK   29  A    between atoms: _65  and  _66
REMARK   30  A    between atoms: _65  and  _68
REMARK   31  A    between atoms: _68  and  _69
REMARK   32  A    between atoms: _74  and  _76
REMARK   33  A    between atoms: _76  and  _77
REMARK   34  A    between atoms: _76  and  _79
REMARK   35  A    between atoms: _79  and  _80
REMARK   36  A    between atoms: _80  and  _81
REMARK   37  A    between atoms: _81  and  _82
REMARK   38  A    between atoms: _91  and  _93
REMARK   39  A    between atoms: _93  and  _94
REMARK   40  A    between atoms: _96  and  _98
REMARK   41  A    between atoms: _98  and  _99
REMARK   42  A    between atoms: _98  and  _101
REMARK   43  A    between atoms: _104  and  _106
REMARK   44  A    between atoms: _106  and  _107
REMARK   45  A    between atoms: _106  and  _109
REMARK   46  A    between atoms: _109  and  _110
REMARK   47  A    between atoms: _113  and  _115
REMARK   48  A    between atoms: _115  and  _116
REMARK   49  A    between atoms: _115  and  _118
REMARK   50  A    between atoms: _118  and  _119
REMARK   51  A    between atoms: _119  and  _120
REMARK   52  A    between atoms: _120  and  _121
REMARK   53  A    between atoms: _121  and  _122
REMARK   54  A    between atoms: _126  and  _128
REMARK   55  A    between atoms: _128  and  _129
REMARK   56  A    between atoms: _128  and  _131
REMARK   57  A    between atoms: _131  and  _132
REMARK   58  A    between atoms: _132  and  _133
REMARK   59  A    between atoms: _133  and  _134
REMARK   60  A    between atoms: _134  and  _135
REMARK   61  A    between atoms: _139  and  _141
REMARK   62  A    between atoms: _141  and  _142
REMARK   63  A    between atoms: _141  and  _144
REMARK   64  A    between atoms: _144  and  _145
REMARK   65  A    between atoms: _150  and  _152
REMARK   66  A    between atoms: _152  and  _153
REMARK   67  A    between atoms: _152  and  _155
REMARK   68  A    between atoms: _155  and  _156
REMARK   69  A    between atoms: _161  and  _163
REMARK   70  A    between atoms: _163  and  _164
REMARK   71  A    between atoms: _167  and  _169
REMARK   72  A    between atoms: _169  and  _170
REMARK   73  A    between atoms: _169  and  _172
REMARK   74  A    between atoms: _172  and  _173
REMARK   75  A    between atoms: _178  and  _180
REMARK   76  A    between atoms: _180  and  _181
REMARK   77  A    between atoms: _184  and  _186
REMARK   78  A    between atoms: _186  and  _187
REMARK   79  A    between atoms: _190  and  _192
REMARK   80  A    between atoms: _192  and  _193
REMARK   81  A    between atoms: _192  and  _195
REMARK   82  A    between atoms: _195  and  _196
REMARK   83  A    between atoms: _201  and  _203
REMARK   84  A    between atoms: _203  and  _204
REMARK   85  A    between atoms: _203  and  _206
REMARK   86  A    between atoms: _206  and  _207
REMARK   87  A    between atoms: _210  and  _212
REMARK   88  A    between atoms: _212  and  _213
REMARK   89  A    between atoms: _215  and  _217
REMARK   90  A    between atoms: _217  and  _218
REMARK   91  A    between atoms: _217  and  _220
REMARK   92  A    between atoms: _220  and  _221
REMARK   93  A    between atoms: _221  and  _222
REMARK   94  A    between atoms: _225  and  _227
REMARK   95  A    between atoms: _227  and  _228
REMARK   96  A    between atoms: _227  and  _230
REMARK   97  A    between atoms: _230  and  _231
REMARK   98  A    between atoms: _234  and  _236
REMARK   99  A    between atoms: _236  and  _237
REMARK  100  A    between atoms: _236  and  _239
REMARK  101  A    between atoms: _239  and  _240
REMARK  102  A    between atoms: _242  and  _244
REMARK  103  A    between atoms: _244  and  _245
REMARK  104  A    between atoms: _244  and  _247
REMARK  105  A    between atoms: _247  and  _248
REMARK  106  A    between atoms: _251  and  _253
REMARK  107  A    between atoms: _253  and  _254
REMARK  108  A    between atoms: _253  and  _256
REMARK  109  A    between atoms: _256  and  _257
REMARK  110  A    between atoms: _257  and  _258
REMARK  111  A    between atoms: _260  and  _262
REMARK  112  A    between atoms: _262  and  _263
REMARK  113  A    between atoms: _266  and  _268
REMARK  114  A    between atoms: _268  and  _269
REMARK  115  A    between atoms: _272  and  _274
REMARK  116  A    between atoms: _274  and  _275
REMARK  117  A    between atoms: _274  and  _277
REMARK  118  A    between atoms: _277  and  _278
REMARK  119  A    between atoms: _281  and  _283
REMARK  120  A    between atoms: _283  and  _284
REMARK  121  A    between atoms: _287  and  _289
REMARK  122  A    between atoms: _289  and  _290
REMARK  123  A    between atoms: _293  and  _295
REMARK  124  A    between atoms: _295  and  _296
REMARK  125  A    between atoms: _298  and  _300
REMARK  126  A    between atoms: _300  and  _301
REMARK  127  A    between atoms: _300  and  _303
REMARK  128  A    between atoms: _303  and  _304
REMARK  129  A    between atoms: _309  and  _311
REMARK  130  A    between atoms: _311  and  _312
REMARK  131  A    between atoms: _311  and  _314
REMARK  132  A    between atoms: _314  and  _315
REMARK  133  A    between atoms: _315  and  _316
REMARK  134  A    between atoms: _319  and  _321
REMARK  135  A    between atoms: _321  and  _322
REMARK  136  A    between atoms: _321  and  _324
REMARK  137  A    between atoms: _324  and  _325
REMARK  138  A    between atoms: _328  and  _330
REMARK  139  A    between atoms: _330  and  _331
REMARK  140  A    between atoms: _330  and  _333
REMARK  141  A    between atoms: _333  and  _334
REMARK  142  A    between atoms: _334  and  _335
REMARK  143  A    between atoms: _335  and  _336
REMARK  144  A    between atoms: _345  and  _347
REMARK  145  A    between atoms: _347  and  _348
REMARK  146  A    between atoms: _351  and  _352
REMARK  147  A    between atoms: _357  and  _359
REMARK  148  A    between atoms: _359  and  _360
REMARK  149  A    between atoms: _359  and  _362
REMARK  150  A    between atoms: _362  and  _363
REMARK  151  A    between atoms: _363  and  _364
REMARK  152  A    between atoms: _366  and  _368
REMARK  153  A    between atoms: _368  and  _369
REMARK  154  A    between atoms: _368  and  _371
REMARK  155  A    between atoms: _371  and  _372
REMARK  156  A    between atoms: _372  and  _373
REMARK  157  A    between atoms: _375  and  _377
REMARK  158  A    between atoms: _377  and  _378
REMARK  159  A    between atoms: _377  and  _380
REMARK  160  A    between atoms: _380  and  _381
REMARK  161  A    between atoms: _386  and  _388
REMARK  162  A    between atoms: _388  and  _389
REMARK  163  A    between atoms: _388  and  _391
REMARK  164  A    between atoms: _391  and  _392
REMARK  165  A    between atoms: _395  and  _397
REMARK  166  A    between atoms: _397  and  _398
REMARK  167  A    between atoms: _397  and  _400
REMARK  168  A    between atoms: _400  and  _401
REMARK  169  A    between atoms: _403  and  _405
REMARK  170  A    between atoms: _405  and  _406
REMARK  171  A    between atoms: _405  and  _408
REMARK  172  A    between atoms: _408  and  _409
REMARK  173  A    between atoms: _409  and  _410
REMARK  174  A    between atoms: _410  and  _411
REMARK  175  A    between atoms: _411  and  _412
REMARK  176  A    between atoms: _416  and  _418
REMARK  177  A    between atoms: _418  and  _419
REMARK  178  A    between atoms: _418  and  _421
REMARK  179  A    between atoms: _421  and  _422
REMARK  180  A    between atoms: _425  and  _427
REMARK  181  A    between atoms: _427  and  _428
REMARK  182  A    between atoms: _427  and  _430
REMARK  183  A    between atoms: _430  and  _431
REMARK  184  A    between atoms: _431  and  _432
REMARK  185  A    between atoms: _435  and  _437
REMARK  186  A    between atoms: _437  and  _438
REMARK  187  A    between atoms: _441  and  _443
REMARK  188  A    between atoms: _443  and  _444
REMARK  189  A    between atoms: _443  and  _446
REMARK  190  A    between atoms: _449  and  _451
REMARK  191  A    between atoms: _451  and  _452
REMARK  192  A    between atoms: _451  and  _454
REMARK  193  A    between atoms: _454  and  _455
REMARK  194  A    between atoms: _457  and  _459
REMARK  195  A    between atoms: _459  and  _460
REMARK  196  A    between atoms: _462  and  _464
REMARK  197  A    between atoms: _464  and  _465
REMARK  198  A    between atoms: _464  and  _467
REMARK  199  A    between atoms: _467  and  _468
REMARK  200  A    between atoms: _473  and  _475
REMARK  201  A    between atoms: _475  and  _476
REMARK  202  A    between atoms: _475  and  _478
REMARK  203  A    between atoms: _478  and  _479
REMARK  204  A    between atoms: _484  and  _485
REMARK  205  A    between atoms: _487  and  _489
REMARK  206  A    between atoms: _489  and  _490
REMARK  207  A    between atoms: _489  and  _492
REMARK  208  A    between atoms: _494  and  _496
REMARK  209  A    between atoms: _496  and  _497
REMARK  210  A    between atoms: _496  and  _499
REMARK  211  A    between atoms: _499  and  _500
REMARK  212  A    between atoms: _503  and  _505
REMARK  213  A    between atoms: _505  and  _506
REMARK  214  A    between atoms: _505  and  _508
REMARK  215  A    between atoms: _508  and  _509
REMARK  216  A    between atoms: _512  and  _514
REMARK  217  A    between atoms: _514  and  _515
REMARK  218  A    between atoms: _514  and  _517
REMARK  219  A    between atoms: _517  and  _518
REMARK  220  A    between atoms: _518  and  _519
REMARK  221  A    between atoms: _519  and  _520
REMARK  222  A    between atoms: _520  and  _521
REMARK  223  A    between atoms: _525  and  _527
REMARK  224  A    between atoms: _527  and  _528
REMARK  225  A    between atoms: _527  and  _530
REMARK  226  A    between atoms: _530  and  _531
REMARK  227  A    between atoms: _531  and  _532
REMARK  228  A    between atoms: _532  and  _533
REMARK  229  A    between atoms: _533  and  _534
REMARK  230  A    between atoms: _538  and  _540
REMARK  231  A    between atoms: _540  and  _541
REMARK  232  A    between atoms: _540  and  _543
REMARK  233  A    between atoms: _543  and  _544
REMARK  234  A    between atoms: _544  and  _545
REMARK  235  A    between atoms: _545  and  _546
REMARK  236  A    between atoms: _555  and  _557
REMARK  237  A    between atoms: _557  and  _558
REMARK  238  A    between atoms: _557  and  _560
REMARK  239  A    between atoms: _560  and  _561
REMARK  240  A    between atoms: _564  and  _566
REMARK  241  A    between atoms: _566  and  _567
REMARK  242  A    between atoms: _570  and  _572
REMARK  243  A    between atoms: _572  and  _573
REMARK  244  A    between atoms: _572  and  _575
REMARK  245  A    between atoms: _575  and  _576
REMARK  246  A    between atoms: _576  and  _577
REMARK                            x       y       z     vdW  Elec       q    Type
REMARK                         _______ _______ _______ _____ _____    ______ ____
ROOT
ATOM      1  O   HOH     1     -11.405 -15.711   2.362  0.00  0.00    +0.000 OA
ENDROOT
TORSDOF 0
REMARK  Name = ../refined-set-2016/3cd7/3cd7_pocket.pdb
REMARK  246 active torsions:
REMARK  status: ('A' for Active; 'I' for Inactive)
REMARK    1  A    between atoms: _1  and  _3
REMARK    2  A    between atoms: _3  and  _4
REMARK    3  A    between atoms: _3  and  _6
REMARK    4  A    between atoms: _6  and  _7
REMARK    5  A    between atoms: _7  and  _8
REMARK    6  A    between atoms: _11  and  _13
REMARK    7  A    between atoms: _13  and  _14
REMARK    8  A    between atoms: _16  and  _18
REMARK    9  A    between atoms: _18  and  _19
REMARK   10  A    between atoms: _18  and  _21
REMARK   11  A    between atoms: _23  and  _25
REMARK   12  A    between atoms: _25  and  _26
REMARK   13  A    between atoms: _25  and  _28
REMARK   14  A    between atoms: _28  and  _29
REMARK   15  A    between atoms: _32  and  _34
REMARK   16  A    between atoms: _34  and  _35
REMARK   17  A    between atoms: _34  and  _37
REMARK   18  A    between atoms: _40  and  _42
REMARK   19  A    between atoms: _42  and  _43
REMARK   20  A    between atoms: _46  and  _48
REMARK   21  A    between atoms: _48  and  _49
REMARK   22  A    between atoms: _48  and  _51
REMARK   23  A    between atoms: _51  and  _52
REMARK   24  A    between atoms: _54  and  _56
REMARK   25  A    between atoms: _56  and  _57
REMARK   26  A    between atoms: _56  and  _59
REMARK   27  A    between atoms: _59  and  _60
REMARK   28  A    between atoms: _63  and  _65
REMARK   29  A    between atoms: _65  and  _66
REMARK   30  A    between atoms: _65  and  _68
REMARK   31  A    between atoms: _68  and  _69
REMARK   32  A    between atoms: _74  and  _76
REMARK   33  A    between atoms: _76  and  _77
REMARK   34  A    between atoms: _76  and  _79
REMARK   35  A    between atoms: _79  and  _80
REMARK   36  A    between atoms: _80  and  _81
REMARK   37  A    between atoms: _81  and  _82
REMARK   38  A    between atoms: _91  and  _93
REMARK   39  A    between atoms: _93  and  _94
REMARK   40  A    between atoms: _96  and  _98
REMARK   41  A    between atoms: _98  and  _99
REMARK   42  A    between atoms: _98  and  _101
REMARK   43  A    between atoms: _104  and  _106
REMARK   44  A    between atoms: _106  and  _107
REMARK   45  A    between atoms: _106  and  _109
REMARK   46  A    between atoms: _109  and  _110
REMARK   47  A    between atoms: _113  and  _115
REMARK   48  A    between atoms: _115  and  _116
REMARK   49  A    between atoms: _115  and  _118
REMARK   50  A    between atoms: _118  and  _119
REMARK   51  A    between atoms: _119  and  _120
REMARK   52  A    between atoms: _120  and  _121
REMARK   53  A    between atoms: _121  and  _122
REMARK   54  A    between atoms: _126  and  _128
REMARK   55  A    between atoms: _128  and  _129
REMARK   56  A    between atoms: _128  and  _131
REMARK   57  A    between atoms: _131  and  _132
REMARK   58  A    between atoms: _132  and  _133
REMARK   59  A    between atoms: _133  and  _134
REMARK   60  A    between atoms: _134  and  _135
REMARK   61  A    between atoms: _139  and  _141
REMARK   62  A    between atoms: _141  and  _142
REMARK   63  A    between atoms: _141  and  _144
REMARK   64  A    between atoms: _144  and  _145
REMARK   65  A    between atoms: _150  and  _152
REMARK   66  A    between atoms: _152  and  _153
REMARK   67  A    between atoms: _152  and  _155
REMARK   68  A    between atoms: _155  and  _156
REMARK   69  A    between atoms: _161  and  _163
REMARK   70  A    between atoms: _163  and  _164
REMARK   71  A    between atoms: _167  and  _169
REMARK   72  A    between atoms: _169  and  _170
REMARK   73  A    between atoms: _169  and  _172
REMARK   74  A    between atoms: _172  and  _173
REMARK   75  A    between atoms: _178  and  _180
REMARK   76  A    between atoms: _180  and  _181
REMARK   77  A    between atoms: _184  and  _186
REMARK   78  A    between atoms: _186  and  _187
REMARK   79  A    between atoms: _190  and  _192
REMARK   80  A    between atoms: _192  and  _193
REMARK   81  A    between atoms: _192  and  _195
REMARK   82  A    between atoms: _195  and  _196
REMARK   83  A    between atoms: _201  and  _203
REMARK   84  A    between atoms: _203  and  _204
REMARK   85  A    between atoms: _203  and  _206
REMARK   86  A    between atoms: _206  and  _207
REMARK   87  A    between atoms: _210  and  _212
REMARK   88  A    between atoms: _212  and  _213
REMARK   89  A    between atoms: _215  and  _217
REMARK   90  A    between atoms: _217  and  _218
REMARK   91  A    between atoms: _217  and  _220
REMARK   92  A    between atoms: _220  and  _221
REMARK   93  A    between atoms: _221  and  _222
REMARK   94  A    between atoms: _225  and  _227
REMARK   95  A    between atoms: _227  and  _228
REMARK   96  A    between atoms: _227  and  _230
REMARK   97  A    between atoms: _230  and  _231
REMARK   98  A    between atoms: _234  and  _236
REMARK   99  A    between atoms: _236  and  _237
REMARK  100  A    between atoms: _236  and  _239
REMARK  101  A    between atoms: _239  and  _240
REMARK  102  A    between atoms: _242  and  _244
REMARK  103  A    between atoms: _244  and  _245
REMARK  104  A    between atoms: _244  and  _247
REMARK  105  A    between atoms: _247  and  _248
REMARK  106  A    between atoms: _251  and  _253
REMARK  107  A    between atoms: _253  and  _254
REMARK  108  A    between atoms: _253  and  _256
REMARK  109  A    between atoms: _256  and  _257
REMARK  110  A    between atoms: _257  and  _258
REMARK  111  A    between atoms: _260  and  _262
REMARK  112  A    between atoms: _262  and  _263
REMARK  113  A    between atoms: _266  and  _268
REMARK  114  A    between atoms: _268  and  _269
REMARK  115  A    between atoms: _272  and  _274
REMARK  116  A    between atoms: _274  and  _275
REMARK  117  A    between atoms: _274  and  _277
REMARK  118  A    between atoms: _277  and  _278
REMARK  119  A    between atoms: _281  and  _283
REMARK  120  A    between atoms: _283  and  _284
REMARK  121  A    between atoms: _287  and  _289
REMARK  122  A    between atoms: _289  and  _290
REMARK  123  A    between atoms: _293  and  _295
REMARK  124  A    between atoms: _295  and  _296
REMARK  125  A    between atoms: _298  and  _300
REMARK  126  A    between atoms: _300  and  _301
REMARK  127  A    between atoms: _300  and  _303
REMARK  128  A    between atoms: _303  and  _304
REMARK  129  A    between atoms: _309  and  _311
REMARK  130  A    between atoms: _311  and  _312
REMARK  131  A    between atoms: _311  and  _314
REMARK  132  A    between atoms: _314  and  _315
REMARK  133  A    between atoms: _315  and  _316
REMARK  134  A    between atoms: _319  and  _321
REMARK  135  A    between atoms: _321  and  _322
REMARK  136  A    between atoms: _321  and  _324
REMARK  137  A    between atoms: _324  and  _325
REMARK  138  A    between atoms: _328  and  _330
REMARK  139  A    between atoms: _330  and  _331
REMARK  140  A    between atoms: _330  and  _333
REMARK  141  A    between atoms: _333  and  _334
REMARK  142  A    between atoms: _334  and  _335
REMARK  143  A    between atoms: _335  and  _336
REMARK  144  A    between atoms: _345  and  _347
REMARK  145  A    between atoms: _347  and  _348
REMARK  146  A    between atoms: _351  and  _352
REMARK  147  A    between atoms: _357  and  _359
REMARK  148  A    between atoms: _359  and  _360
REMARK  149  A    between atoms: _359  and  _362
REMARK  150  A    between atoms: _362  and  _363
REMARK  151  A    between atoms: _363  and  _364
REMARK  152  A    between atoms: _366  and  _368
REMARK  153  A    between atoms: _368  and  _369
REMARK  154  A    between atoms: _368  and  _371
REMARK  155  A    between atoms: _371  and  _372
REMARK  156  A    between atoms: _372  and  _373
REMARK  157  A    between atoms: _375  and  _377
REMARK  158  A    between atoms: _377  and  _378
REMARK  159  A    between atoms: _377  and  _380
REMARK  160  A    between atoms: _380  and  _381
REMARK  161  A    between atoms: _386  and  _388
REMARK  162  A    between atoms: _388  and  _389
REMARK  163  A    between atoms: _388  and  _391
REMARK  164  A    between atoms: _391  and  _392
REMARK  165  A    between atoms: _395  and  _397
REMARK  166  A    between atoms: _397  and  _398
REMARK  167  A    between atoms: _397  and  _400
REMARK  168  A    between atoms: _400  and  _401
REMARK  169  A    between atoms: _403  and  _405
REMARK  170  A    between atoms: _405  and  _406
REMARK  171  A    between atoms: _405  and  _408
REMARK  172  A    between atoms: _408  and  _409
REMARK  173  A    between atoms: _409  and  _410
REMARK  174  A    between atoms: _410  and  _411
REMARK  175  A    between atoms: _411  and  _412
REMARK  176  A    between atoms: _416  and  _418
REMARK  177  A    between atoms: _418  and  _419
REMARK  178  A    between atoms: _418  and  _421
REMARK  179  A    between atoms: _421  and  _422
REMARK  180  A    between atoms: _425  and  _427
REMARK  181  A    between atoms: _427  and  _428
REMARK  182  A    between atoms: _427  and  _430
REMARK  183  A    between atoms: _430  and  _431
REMARK  184  A    between atoms: _431  and  _432
REMARK  185  A    between atoms: _435  and  _437
REMARK  186  A    between atoms: _437  and  _438
REMARK  187  A    between atoms: _441  and  _443
REMARK  188  A    between atoms: _443  and  _444
REMARK  189  A    between atoms: _443  and  _446
REMARK  190  A    between atoms: _449  and  _451
REMARK  191  A    between atoms: _451  and  _452
REMARK  192  A    between atoms: _451  and  _454
REMARK  193  A    between atoms: _454  and  _455
REMARK  194  A    between atoms: _457  and  _459
REMARK  195  A    between atoms: _459  and  _460
REMARK  196  A    between atoms: _462  and  _464
REMARK  197  A    between atoms: _464  and  _465
REMARK  198  A    between atoms: _464  and  _467
REMARK  199  A    between atoms: _467  and  _468
REMARK  200  A    between atoms: _473  and  _475
REMARK  201  A    between atoms: _475  and  _476
REMARK  202  A    between atoms: _475  and  _478
REMARK  203  A    between atoms: _478  and  _479
REMARK  204  A    between atoms: _484  and  _485
REMARK  205  A    between atoms: _487  and  _489
REMARK  206  A    between atoms: _489  and  _490
REMARK  207  A    between atoms: _489  and  _492
REMARK  208  A    between atoms: _494  and  _496
REMARK  209  A    between atoms: _496  and  _497
REMARK  210  A    between atoms: _496  and  _499
REMARK  211  A    between atoms: _499  and  _500
REMARK  212  A    between atoms: _503  and  _505
REMARK  213  A    between atoms: _505  and  _506
REMARK  214  A    between atoms: _505  and  _508
REMARK  215  A    between atoms: _508  and  _509
REMARK  216  A    between atoms: _512  and  _514
REMARK  217  A    between atoms: _514  and  _515
REMARK  218  A    between atoms: _514  and  _517
REMARK  219  A    between atoms: _517  and  _518
REMARK  220  A    between atoms: _518  and  _519
REMARK  221  A    between atoms: _519  and  _520
REMARK  222  A    between atoms: _520  and  _521
REMARK  223  A    between atoms: _525  and  _527
REMARK  224  A    between atoms: _527  and  _528
REMARK  225  A    between atoms: _527  and  _530
REMARK  226  A    between atoms: _530  and  _531
REMARK  227  A    between atoms: _531  and  _532
REMARK  228  A    between atoms: _532  and  _533
REMARK  229  A    between atoms: _533  and  _534
REMARK  230  A    between atoms: _538  and  _540
REMARK  231  A    between atoms: _540  and  _541
REMARK  232  A    between atoms: _540  and  _543
REMARK  233  A    between atoms: _543  and  _544
REMARK  234  A    between atoms: _544  and  _545
REMARK  235  A    between atoms: _545  and  _546
REMARK  236  A    between atoms: _555  and  _557
REMARK  237  A    between atoms: _557  and  _558
REMARK  238  A    between atoms: _557  and  _560
REMARK  239  A    between atoms: _560  and  _561
REMARK  240  A    between atoms: _564  and  _566
REMARK  241  A    between atoms: _566  and  _567
REMARK  242  A    between atoms: _570  and  _572
REMARK  243  A    between atoms: _572  and  _573
REMARK  244  A    between atoms: _572  and  _575
REMARK  245  A    between atoms: _575  and  _576
REMARK  246  A    between atoms: _576  and  _577
REMARK                            x       y       z     vdW  Elec       q    Type
REMARK                         _______ _______ _______ _____ _____    ______ ____
ROOT
ATOM      1  O   HOH     1      -6.538 -16.990  -5.279  0.00  0.00    +0.000 OA
ENDROOT
TORSDOF 0
REMARK  Name = ../refined-set-2016/3cd7/3cd7_pocket.pdb
REMARK  246 active torsions:
REMARK  status: ('A' for Active; 'I' for Inactive)
REMARK    1  A    between atoms: _1  and  _3
REMARK    2  A    between atoms: _3  and  _4
REMARK    3  A    between atoms: _3  and  _6
REMARK    4  A    between atoms: _6  and  _7
REMARK    5  A    between atoms: _7  and  _8
REMARK    6  A    between atoms: _11  and  _13
REMARK    7  A    between atoms: _13  and  _14
REMARK    8  A    between atoms: _16  and  _18
REMARK    9  A    between atoms: _18  and  _19
REMARK   10  A    between atoms: _18  and  _21
REMARK   11  A    between atoms: _23  and  _25
REMARK   12  A    between atoms: _25  and  _26
REMARK   13  A    between atoms: _25  and  _28
REMARK   14  A    between atoms: _28  and  _29
REMARK   15  A    between atoms: _32  and  _34
REMARK   16  A    between atoms: _34  and  _35
REMARK   17  A    between atoms: _34  and  _37
REMARK   18  A    between atoms: _40  and  _42
REMARK   19  A    between atoms: _42  and  _43
REMARK   20  A    between atoms: _46  and  _48
REMARK   21  A    between atoms: _48  and  _49
REMARK   22  A    between atoms: _48  and  _51
REMARK   23  A    between atoms: _51  and  _52
REMARK   24  A    between atoms: _54  and  _56
REMARK   25  A    between atoms: _56  and  _57
REMARK   26  A    between atoms: _56  and  _59
REMARK   27  A    between atoms: _59  and  _60
REMARK   28  A    between atoms: _63  and  _65
REMARK   29  A    between atoms: _65  and  _66
REMARK   30  A    between atoms: _65  and  _68
REMARK   31  A    between atoms: _68  and  _69
REMARK   32  A    between atoms: _74  and  _76
REMARK   33  A    between atoms: _76  and  _77
REMARK   34  A    between atoms: _76  and  _79
REMARK   35  A    between atoms: _79  and  _80
REMARK   36  A    between atoms: _80  and  _81
REMARK   37  A    between atoms: _81  and  _82
REMARK   38  A    between atoms: _91  and  _93
REMARK   39  A    between atoms: _93  and  _94
REMARK   40  A    between atoms: _96  and  _98
REMARK   41  A    between atoms: _98  and  _99
REMARK   42  A    between atoms: _98  and  _101
REMARK   43  A    between atoms: _104  and  _106
REMARK   44  A    between atoms: _106  and  _107
REMARK   45  A    between atoms: _106  and  _109
REMARK   46  A    between atoms: _109  and  _110
REMARK   47  A    between atoms: _113  and  _115
REMARK   48  A    between atoms: _115  and  _116
REMARK   49  A    between atoms: _115  and  _118
REMARK   50  A    between atoms: _118  and  _119
REMARK   51  A    between atoms: _119  and  _120
REMARK   52  A    between atoms: _120  and  _121
REMARK   53  A    between atoms: _121  and  _122
REMARK   54  A    between atoms: _126  and  _128
REMARK   55  A    between atoms: _128  and  _129
REMARK   56  A    between atoms: _128  and  _131
REMARK   57  A    between atoms: _131  and  _132
REMARK   58  A    between atoms: _132  and  _133
REMARK   59  A    between atoms: _133  and  _134
REMARK   60  A    between atoms: _134  and  _135
REMARK   61  A    between atoms: _139  and  _141
REMARK   62  A    between atoms: _141  and  _142
REMARK   63  A    between atoms: _141  and  _144
REMARK   64  A    between atoms: _144  and  _145
REMARK   65  A    between atoms: _150  and  _152
REMARK   66  A    between atoms: _152  and  _153
REMARK   67  A    between atoms: _152  and  _155
REMARK   68  A    between atoms: _155  and  _156
REMARK   69  A    between atoms: _161  and  _163
REMARK   70  A    between atoms: _163  and  _164
REMARK   71  A    between atoms: _167  and  _169
REMARK   72  A    between atoms: _169  and  _170
REMARK   73  A    between atoms: _169  and  _172
REMARK   74  A    between atoms: _172  and  _173
REMARK   75  A    between atoms: _178  and  _180
REMARK   76  A    between atoms: _180  and  _181
REMARK   77  A    between atoms: _184  and  _186
REMARK   78  A    between atoms: _186  and  _187
REMARK   79  A    between atoms: _190  and  _192
REMARK   80  A    between atoms: _192  and  _193
REMARK   81  A    between atoms: _192  and  _195
REMARK   82  A    between atoms: _195  and  _196
REMARK   83  A    between atoms: _201  and  _203
REMARK   84  A    between atoms: _203  and  _204
REMARK   85  A    between atoms: _203  and  _206
REMARK   86  A    between atoms: _206  and  _207
REMARK   87  A    between atoms: _210  and  _212
REMARK   88  A    between atoms: _212  and  _213
REMARK   89  A    between atoms: _215  and  _217
REMARK   90  A    between atoms: _217  and  _218
REMARK   91  A    between atoms: _217  and  _220
REMARK   92  A    between atoms: _220  and  _221
REMARK   93  A    between atoms: _221  and  _222
REMARK   94  A    between atoms: _225  and  _227
REMARK   95  A    between atoms: _227  and  _228
REMARK   96  A    between atoms: _227  and  _230
REMARK   97  A    between atoms: _230  and  _231
REMARK   98  A    between atoms: _234  and  _236
REMARK   99  A    between atoms: _236  and  _237
REMARK  100  A    between atoms: _236  and  _239
REMARK  101  A    between atoms: _239  and  _240
REMARK  102  A    between atoms: _242  and  _244
REMARK  103  A    between atoms: _244  and  _245
REMARK  104  A    between atoms: _244  and  _247
REMARK  105  A    between atoms: _247  and  _248
REMARK  106  A    between atoms: _251  and  _253
REMARK  107  A    between atoms: _253  and  _254
REMARK  108  A    between atoms: _253  and  _256
REMARK  109  A    between atoms: _256  and  _257
REMARK  110  A    between atoms: _257  and  _258
REMARK  111  A    between atoms: _260  and  _262
REMARK  112  A    between atoms: _262  and  _263
REMARK  113  A    between atoms: _266  and  _268
REMARK  114  A    between atoms: _268  and  _269
REMARK  115  A    between atoms: _272  and  _274
REMARK  116  A    between atoms: _274  and  _275
REMARK  117  A    between atoms: _274  and  _277
REMARK  118  A    between atoms: _277  and  _278
REMARK  119  A    between atoms: _281  and  _283
REMARK  120  A    between atoms: _283  and  _284
REMARK  121  A    between atoms: _287  and  _289
REMARK  122  A    between atoms: _289  and  _290
REMARK  123  A    between atoms: _293  and  _295
REMARK  124  A    between atoms: _295  and  _296
REMARK  125  A    between atoms: _298  and  _300
REMARK  126  A    between atoms: _300  and  _301
REMARK  127  A    between atoms: _300  and  _303
REMARK  128  A    between atoms: _303  and  _304
REMARK  129  A    between atoms: _309  and  _311
REMARK  130  A    between atoms: _311  and  _312
REMARK  131  A    between atoms: _311  and  _314
REMARK  132  A    between atoms: _314  and  _315
REMARK  133  A    between atoms: _315  and  _316
REMARK  134  A    between atoms: _319  and  _321
REMARK  135  A    between atoms: _321  and  _322
REMARK  136  A    between atoms: _321  and  _324
REMARK  137  A    between atoms: _324  and  _325
REMARK  138  A    between atoms: _328  and  _330
REMARK  139  A    between atoms: _330  and  _331
REMARK  140  A    between atoms: _330  and  _333
REMARK  141  A    between atoms: _333  and  _334
REMARK  142  A    between atoms: _334  and  _335
REMARK  143  A    between atoms: _335  and  _336
REMARK  144  A    between atoms: _345  and  _347
REMARK  145  A    between atoms: _347  and  _348
REMARK  146  A    between atoms: _351  and  _352
REMARK  147  A    between atoms: _357  and  _359
REMARK  148  A    between atoms: _359  and  _360
REMARK  149  A    between atoms: _359  and  _362
REMARK  150  A    between atoms: _362  and  _363
REMARK  151  A    between atoms: _363  and  _364
REMARK  152  A    between atoms: _366  and  _368
REMARK  153  A    between atoms: _368  and  _369
REMARK  154  A    between atoms: _368  and  _371
REMARK  155  A    between atoms: _371  and  _372
REMARK  156  A    between atoms: _372  and  _373
REMARK  157  A    between atoms: _375  and  _377
REMARK  158  A    between atoms: _377  and  _378
REMARK  159  A    between atoms: _377  and  _380
REMARK  160  A    between atoms: _380  and  _381
REMARK  161  A    between atoms: _386  and  _388
REMARK  162  A    between atoms: _388  and  _389
REMARK  163  A    between atoms: _388  and  _391
REMARK  164  A    between atoms: _391  and  _392
REMARK  165  A    between atoms: _395  and  _397
REMARK  166  A    between atoms: _397  and  _398
REMARK  167  A    between atoms: _397  and  _400
REMARK  168  A    between atoms: _400  and  _401
REMARK  169  A    between atoms: _403  and  _405
REMARK  170  A    between atoms: _405  and  _406
REMARK  171  A    between atoms: _405  and  _408
REMARK  172  A    between atoms: _408  and  _409
REMARK  173  A    between atoms: _409  and  _410
REMARK  174  A    between atoms: _410  and  _411
REMARK  175  A    between atoms: _411  and  _412
REMARK  176  A    between atoms: _416  and  _418
REMARK  177  A    between atoms: _418  and  _419
REMARK  178  A    between atoms: _418  and  _421
REMARK  179  A    between atoms: _421  and  _422
REMARK  180  A    between atoms: _425  and  _427
REMARK  181  A    between atoms: _427  and  _428
REMARK  182  A    between atoms: _427  and  _430
REMARK  183  A    between atoms: _430  and  _431
REMARK  184  A    between atoms: _431  and  _432
REMARK  185  A    between atoms: _435  and  _437
REMARK  186  A    between atoms: _437  and  _438
REMARK  187  A    between atoms: _441  and  _443
REMARK  188  A    between atoms: _443  and  _444
REMARK  189  A    between atoms: _443  and  _446
REMARK  190  A    between atoms: _449  and  _451
REMARK  191  A    between atoms: _451  and  _452
REMARK  192  A    between atoms: _451  and  _454
REMARK  193  A    between atoms: _454  and  _455
REMARK  194  A    between atoms: _457  and  _459
REMARK  195  A    between atoms: _459  and  _460
REMARK  196  A    between atoms: _462  and  _464
REMARK  197  A    between atoms: _464  and  _465
REMARK  198  A    between atoms: _464  and  _467
REMARK  199  A    between atoms: _467  and  _468
REMARK  200  A    between atoms: _473  and  _475
REMARK  201  A    between atoms: _475  and  _476
REMARK  202  A    between atoms: _475  and  _478
REMARK  203  A    between atoms: _478  and  _479
REMARK  204  A    between atoms: _484  and  _485
REMARK  205  A    between atoms: _487  and  _489
REMARK  206  A    between atoms: _489  and  _490
REMARK  207  A    between atoms: _489  and  _492
REMARK  208  A    between atoms: _494  and  _496
REMARK  209  A    between atoms: _496  and  _497
REMARK  210  A    between atoms: _496  and  _499
REMARK  211  A    between atoms: _499  and  _500
REMARK  212  A    between atoms: _503  and  _505
REMARK  213  A    between atoms: _505  and  _506
REMARK  214  A    between atoms: _505  and  _508
REMARK  215  A    between atoms: _508  and  _509
REMARK  216  A    between atoms: _512  and  _514
REMARK  217  A    between atoms: _514  and  _515
REMARK  218  A    between atoms: _514  and  _517
REMARK  219  A    between atoms: _517  and  _518
REMARK  220  A    between atoms: _518  and  _519
REMARK  221  A    between atoms: _519  and  _520
REMARK  222  A    between atoms: _520  and  _521
REMARK  223  A    between atoms: _525  and  _527
REMARK  224  A    between atoms: _527  and  _528
REMARK  225  A    between atoms: _527  and  _530
REMARK  226  A    between atoms: _530  and  _531
REMARK  227  A    between atoms: _531  and  _532
REMARK  228  A    between atoms: _532  and  _533
REMARK  229  A    between atoms: _533  and  _534
REMARK  230  A    between atoms: _538  and  _540
REMARK  231  A    between atoms: _540  and  _541
REMARK  232  A    between atoms: _540  and  _543
REMARK  233  A    between atoms: _543  and  _544
REMARK  234  A    between atoms: _544  and  _545
REMARK  235  A    between atoms: _545  and  _546
REMARK  236  A    between atoms: _555  and  _557
REMARK  237  A    between atoms: _557  and  _558
REMARK  238  A    between atoms: _557  and  _560
REMARK  239  A    between atoms: _560  and  _561
REMARK  240  A    between atoms: _564  and  _566
REMARK  241  A    between atoms: _566  and  _567
REMARK  242  A    between atoms: _570  and  _572
REMARK  243  A    between atoms: _572  and  _573
REMARK  244  A    between atoms: _572  and  _575
REMARK  245  A    between atoms: _575  and  _576
REMARK  246  A    between atoms: _576  and  _577
REMARK                            x       y       z     vdW  Elec       q    Type
REMARK                         _______ _______ _______ _____ _____    ______ ____
ROOT
ATOM      1  O   HOH     1     -10.838 -16.382  11.080  0.00  0.00    +0.000 OA
ENDROOT
TORSDOF 0
