REMARK  Name = ../refined-set-2016/1if8/1if8_pocket.pdb
REMARK  166 active torsions:
REMARK  status: ('A' for Active; 'I' for Inactive)
REMARK    1  A    between atoms: _1  and  _3
REMARK    2  A    between atoms: _3  and  _4
REMARK    3  A    between atoms: _3  and  _6
REMARK    4  A    between atoms: _6  and  _7
REMARK    5  A    between atoms: _12  and  _14
REMARK    6  A    between atoms: _14  and  _15
REMARK    7  A    between atoms: _14  and  _17
REMARK    8  A    between atoms: _17  and  _18
REMARK    9  A    between atoms: _28  and  _30
REMARK   10  A    between atoms: _30  and  _31
REMARK   11  A    between atoms: _30  and  _33
REMARK   12  A    between atoms: _33  and  _34
REMARK   13  A    between atoms: _39  and  _40
REMARK   14  A    between atoms: _42  and  _44
REMARK   15  A    between atoms: _44  and  _45
REMARK   16  A    between atoms: _44  and  _47
REMARK   17  A    between atoms: _47  and  _48
REMARK   18  A    between atoms: _54  and  _56
REMARK   19  A    between atoms: _56  and  _57
REMARK   20  A    between atoms: _56  and  _59
REMARK   21  A    between atoms: _59  and  _60
REMARK   22  A    between atoms: _63  and  _64
REMARK   23  A    between atoms: _69  and  _71
REMARK   24  A    between atoms: _71  and  _72
REMARK   25  A    between atoms: _71  and  _74
REMARK   26  A    between atoms: _74  and  _75
REMARK   27  A    between atoms: _80  and  _82
REMARK   28  A    between atoms: _82  and  _83
REMARK   29  A    between atoms: _82  and  _85
REMARK   30  A    between atoms: _85  and  _86
REMARK   31  A    between atoms: _91  and  _93
REMARK   32  A    between atoms: _93  and  _94
REMARK   33  A    between atoms: _97  and  _99
REMARK   34  A    between atoms: _99  and  _100
REMARK   35  A    between atoms: _99  and  _102
REMARK   36  A    between atoms: _102  and  _103
REMARK   37  A    between atoms: _108  and  _110
REMARK   38  A    between atoms: _110  and  _111
REMARK   39  A    between atoms: _110  and  _113
REMARK   40  A    between atoms: _113  and  _114
REMARK   41  A    between atoms: _117  and  _119
REMARK   42  A    between atoms: _119  and  _120
REMARK   43  A    between atoms: _119  and  _122
REMARK   44  A    between atoms: _122  and  _123
REMARK   45  A    between atoms: _123  and  _124
REMARK   46  A    between atoms: _129  and  _131
REMARK   47  A    between atoms: _131  and  _132
REMARK   48  A    between atoms: _131  and  _134
REMARK   49  A    between atoms: _134  and  _135
REMARK   50  A    between atoms: _141  and  _143
REMARK   51  A    between atoms: _154  and  _157
REMARK   52  A    between atoms: _157  and  _158
REMARK   53  A    between atoms: _166  and  _167
REMARK   54  A    between atoms: _175  and  _177
REMARK   55  A    between atoms: _177  and  _178
REMARK   56  A    between atoms: _177  and  _180
REMARK   57  A    between atoms: _180  and  _181
REMARK   58  A    between atoms: _181  and  _182
REMARK   59  A    between atoms: _185  and  _187
REMARK   60  A    between atoms: _187  and  _188
REMARK   61  A    between atoms: _187  and  _190
REMARK   62  A    between atoms: _190  and  _191
REMARK   63  A    between atoms: _196  and  _198
REMARK   64  A    between atoms: _198  and  _199
REMARK   65  A    between atoms: _198  and  _201
REMARK   66  A    between atoms: _201  and  _202
REMARK   67  A    between atoms: _202  and  _203
REMARK   68  A    between atoms: _206  and  _208
REMARK   69  A    between atoms: _208  and  _209
REMARK   70  A    between atoms: _208  and  _211
REMARK   71  A    between atoms: _211  and  _212
REMARK   72  A    between atoms: _215  and  _217
REMARK   73  A    between atoms: _217  and  _218
REMARK   74  A    between atoms: _217  and  _220
REMARK   75  A    between atoms: _220  and  _221
REMARK   76  A    between atoms: _222  and  ZN_460
REMARK   77  A    between atoms: _226  and  _228
REMARK   78  A    between atoms: _228  and  _229
REMARK   79  A    between atoms: _228  and  _231
REMARK   80  A    between atoms: _231  and  _232
REMARK   81  A    between atoms: _235  and  _237
REMARK   82  A    between atoms: _237  and  _238
REMARK   83  A    between atoms: _237  and  _240
REMARK   84  A    between atoms: _243  and  _245
REMARK   85  A    between atoms: _245  and  _246
REMARK   86  A    between atoms: _245  and  _248
REMARK   87  A    between atoms: _248  and  _249
REMARK   88  A    between atoms: _254  and  _256
REMARK   89  A    between atoms: _256  and  _257
REMARK   90  A    between atoms: _256  and  _259
REMARK   91  A    between atoms: _259  and  _260
REMARK   92  A    between atoms: _266  and  _268
REMARK   93  A    between atoms: _268  and  _269
REMARK   94  A    between atoms: _271  and  _273
REMARK   95  A    between atoms: _273  and  _274
REMARK   96  A    between atoms: _273  and  _276
REMARK   97  A    between atoms: _276  and  _277
REMARK   98  A    between atoms: _277  and  _278
REMARK   99  A    between atoms: _278  and  _279
REMARK  100  A    between atoms: _279  and  _280
REMARK  101  A    between atoms: _284  and  _286
REMARK  102  A    between atoms: _286  and  _287
REMARK  103  A    between atoms: _286  and  _289
REMARK  104  A    between atoms: _292  and  _294
REMARK  105  A    between atoms: _294  and  _295
REMARK  106  A    between atoms: _294  and  _297
REMARK  107  A    between atoms: _297  and  _298
REMARK  108  A    between atoms: _298  and  _299
REMARK  109  A    between atoms: _304  and  _306
REMARK  110  A    between atoms: _306  and  _307
REMARK  111  A    between atoms: _306  and  _309
REMARK  112  A    between atoms: _309  and  _310
REMARK  113  A    between atoms: _313  and  _315
REMARK  114  A    between atoms: _315  and  _316
REMARK  115  A    between atoms: _319  and  _321
REMARK  116  A    between atoms: _321  and  _322
REMARK  117  A    between atoms: _321  and  _324
REMARK  118  A    between atoms: _327  and  _329
REMARK  119  A    between atoms: _329  and  _330
REMARK  120  A    between atoms: _329  and  _332
REMARK  121  A    between atoms: _332  and  _333
REMARK  122  A    between atoms: _336  and  _338
REMARK  123  A    between atoms: _338  and  _339
REMARK  124  A    between atoms: _341  and  _343
REMARK  125  A    between atoms: _343  and  _344
REMARK  126  A    between atoms: _343  and  _346
REMARK  127  A    between atoms: _346  and  _347
REMARK  128  A    between atoms: _349  and  _351
REMARK  129  A    between atoms: _351  and  _352
REMARK  130  A    between atoms: _351  and  _354
REMARK  131  A    between atoms: _354  and  _355
REMARK  132  A    between atoms: _358  and  _360
REMARK  133  A    between atoms: _360  and  _361
REMARK  134  A    between atoms: _360  and  _363
REMARK  135  A    between atoms: _363  and  _364
REMARK  136  A    between atoms: _367  and  _369
REMARK  137  A    between atoms: _369  and  _370
REMARK  138  A    between atoms: _369  and  _372
REMARK  139  A    between atoms: _372  and  _373
REMARK  140  A    between atoms: _377  and  _378
REMARK  141  A    between atoms: _384  and  _385
REMARK  142  A    between atoms: _390  and  _392
REMARK  143  A    between atoms: _392  and  _393
REMARK  144  A    between atoms: _392  and  _395
REMARK  145  A    between atoms: _395  and  _396
REMARK  146  A    between atoms: _399  and  _401
REMARK  147  A    between atoms: _401  and  _402
REMARK  148  A    between atoms: _401  and  _404
REMARK  149  A    between atoms: _404  and  _405
REMARK  150  A    between atoms: _408  and  _410
REMARK  151  A    between atoms: _410  and  _411
REMARK  152  A    between atoms: _410  and  _413
REMARK  153  A    between atoms: _416  and  _418
REMARK  154  A    between atoms: _418  and  _419
REMARK  155  A    between atoms: _418  and  _421
REMARK  156  A    between atoms: _421  and  _422
REMARK  157  A    between atoms: _432  and  _434
REMARK  158  A    between atoms: _434  and  _435
REMARK  159  A    between atoms: _434  and  _437
REMARK  160  A    between atoms: _437  and  _438
REMARK  161  A    between atoms: _443  and  _445
REMARK  162  A    between atoms: _445  and  _446
REMARK  163  A    between atoms: _445  and  _448
REMARK  164  A    between atoms: _448  and  _449
REMARK  165  A    between atoms: _449  and  _450
REMARK  166  A    between atoms: _450  and  _451
REMARK                            x       y       z     vdW  Elec       q    Type
REMARK                         _______ _______ _______ _____ _____    ______ ____
ROOT
ATOM      1  CA  TRP A   2       7.313  -1.773  11.447  0.00  0.00    +0.141 C 
ENDROOT
BRANCH   1   3
ATOM      2  C   HIS A   1       8.775  -0.774   9.743  0.00  0.00    +0.239 C 
ATOM      3  N   TRP A   2       7.953  -0.654  10.778  0.00  0.00    -0.298 N 
ATOM      4  H   TRP A   2       7.754   0.303  11.133  0.00  0.00    +0.150 HD
ATOM      5  O   HIS A   1       9.069  -1.858   9.223  0.00  0.00    -0.274 OA
BRANCH   2   6
ATOM      6  CA  HIS A   1       9.386   0.539   9.253  0.00  0.00    +0.151 C 
BRANCH   6   7
ATOM      7  N   HIS A   1      10.843   0.368   9.253  0.00  0.00    -0.238 NA
ATOM      8  H   HIS A   1      11.403   0.925   9.929  0.00  0.00    +0.142 HD
ENDBRANCH   6   7
BRANCH   6   9
ATOM      9  CB  HIS A   1       8.821   0.922   7.883  0.00  0.00    +0.074 C 
BRANCH   9  10
ATOM     10  CG  HIS A   1       7.383   1.338   7.931  0.00  0.00    +0.082 A 
ATOM     11  ND1 HIS A   1       6.927   2.342   8.761  0.00  0.00    -0.227 NA
ATOM     12  CE1 HIS A   1       5.619   2.472   8.618  0.00  0.00    +0.199 A 
ATOM     13  NE2 HIS A   1       5.210   1.589   7.723  0.00  0.00    -0.221 NA
ATOM     14  CD2 HIS A   1       6.292   0.867   7.278  0.00  0.00    +0.115 A 
ENDBRANCH   9  10
ENDBRANCH   6   9
ENDBRANCH   2   6
ENDBRANCH   1   3
BRANCH   1  15
ATOM     15  C   TRP A   2       6.463  -2.703  10.595  0.00  0.00    +0.227 C 
ATOM     16  O   TRP A   2       5.925  -2.299   9.556  0.00  0.00    -0.286 OA
ENDBRANCH   1  15
BRANCH   1  17
ATOM     17  CB  TRP A   2       6.488  -1.245  12.632  0.00  0.00    +0.056 C 
BRANCH  17  18
ATOM     18  CG  TRP A   2       5.242  -0.461  12.242  0.00  0.00    -0.002 A 
ATOM     19  CD2 TRP A   2       3.893  -0.962  12.198  0.00  0.00    +0.013 A 
ATOM     20  CE3 TRP A   2       3.314  -2.217  12.444  0.00  0.00    +0.001 A 
ATOM     21  CZ3 TRP A   2       1.922  -2.351  12.316  0.00  0.00    +0.000 A 
ATOM     22  CH2 TRP A   2       1.117  -1.255  11.948  0.00  0.00    +0.001 A 
ATOM     23  CZ2 TRP A   2       1.657  -0.017  11.700  0.00  0.00    +0.017 A 
ATOM     24  CE2 TRP A   2       3.048   0.125  11.827  0.00  0.00    +0.056 A 
ATOM     25  NE1 TRP A   2       3.845   1.234  11.654  0.00  0.00    -0.352 N 
ATOM     26  HE1 TRP A   2       3.511   2.181  11.383  0.00  0.00    +0.166 HD
ATOM     27  CD1 TRP A   2       5.162   0.887  11.899  0.00  0.00    +0.068 A 
ENDBRANCH  17  18
ENDBRANCH   1  17
TORSDOF 8
REMARK  Name = ../refined-set-2016/1if8/1if8_pocket.pdb
REMARK  166 active torsions:
REMARK  status: ('A' for Active; 'I' for Inactive)
REMARK    1  A    between atoms: _1  and  _3
REMARK    2  A    between atoms: _3  and  _4
REMARK    3  A    between atoms: _3  and  _6
REMARK    4  A    between atoms: _6  and  _7
REMARK    5  A    between atoms: _12  and  _14
REMARK    6  A    between atoms: _14  and  _15
REMARK    7  A    between atoms: _14  and  _17
REMARK    8  A    between atoms: _17  and  _18
REMARK    9  A    between atoms: _28  and  _30
REMARK   10  A    between atoms: _30  and  _31
REMARK   11  A    between atoms: _30  and  _33
REMARK   12  A    between atoms: _33  and  _34
REMARK   13  A    between atoms: _39  and  _40
REMARK   14  A    between atoms: _42  and  _44
REMARK   15  A    between atoms: _44  and  _45
REMARK   16  A    between atoms: _44  and  _47
REMARK   17  A    between atoms: _47  and  _48
REMARK   18  A    between atoms: _54  and  _56
REMARK   19  A    between atoms: _56  and  _57
REMARK   20  A    between atoms: _56  and  _59
REMARK   21  A    between atoms: _59  and  _60
REMARK   22  A    between atoms: _63  and  _64
REMARK   23  A    between atoms: _69  and  _71
REMARK   24  A    between atoms: _71  and  _72
REMARK   25  A    between atoms: _71  and  _74
REMARK   26  A    between atoms: _74  and  _75
REMARK   27  A    between atoms: _80  and  _82
REMARK   28  A    between atoms: _82  and  _83
REMARK   29  A    between atoms: _82  and  _85
REMARK   30  A    between atoms: _85  and  _86
REMARK   31  A    between atoms: _91  and  _93
REMARK   32  A    between atoms: _93  and  _94
REMARK   33  A    between atoms: _97  and  _99
REMARK   34  A    between atoms: _99  and  _100
REMARK   35  A    between atoms: _99  and  _102
REMARK   36  A    between atoms: _102  and  _103
REMARK   37  A    between atoms: _108  and  _110
REMARK   38  A    between atoms: _110  and  _111
REMARK   39  A    between atoms: _110  and  _113
REMARK   40  A    between atoms: _113  and  _114
REMARK   41  A    between atoms: _117  and  _119
REMARK   42  A    between atoms: _119  and  _120
REMARK   43  A    between atoms: _119  and  _122
REMARK   44  A    between atoms: _122  and  _123
REMARK   45  A    between atoms: _123  and  _124
REMARK   46  A    between atoms: _129  and  _131
REMARK   47  A    between atoms: _131  and  _132
REMARK   48  A    between atoms: _131  and  _134
REMARK   49  A    between atoms: _134  and  _135
REMARK   50  A    between atoms: _141  and  _143
REMARK   51  A    between atoms: _154  and  _157
REMARK   52  A    between atoms: _157  and  _158
REMARK   53  A    between atoms: _166  and  _167
REMARK   54  A    between atoms: _175  and  _177
REMARK   55  A    between atoms: _177  and  _178
REMARK   56  A    between atoms: _177  and  _180
REMARK   57  A    between atoms: _180  and  _181
REMARK   58  A    between atoms: _181  and  _182
REMARK   59  A    between atoms: _185  and  _187
REMARK   60  A    between atoms: _187  and  _188
REMARK   61  A    between atoms: _187  and  _190
REMARK   62  A    between atoms: _190  and  _191
REMARK   63  A    between atoms: _196  and  _198
REMARK   64  A    between atoms: _198  and  _199
REMARK   65  A    between atoms: _198  and  _201
REMARK   66  A    between atoms: _201  and  _202
REMARK   67  A    between atoms: _202  and  _203
REMARK   68  A    between atoms: _206  and  _208
REMARK   69  A    between atoms: _208  and  _209
REMARK   70  A    between atoms: _208  and  _211
REMARK   71  A    between atoms: _211  and  _212
REMARK   72  A    between atoms: _215  and  _217
REMARK   73  A    between atoms: _217  and  _218
REMARK   74  A    between atoms: _217  and  _220
REMARK   75  A    between atoms: _220  and  _221
REMARK   76  A    between atoms: _222  and  ZN_460
REMARK   77  A    between atoms: _226  and  _228
REMARK   78  A    between atoms: _228  and  _229
REMARK   79  A    between atoms: _228  and  _231
REMARK   80  A    between atoms: _231  and  _232
REMARK   81  A    between atoms: _235  and  _237
REMARK   82  A    between atoms: _237  and  _238
REMARK   83  A    between atoms: _237  and  _240
REMARK   84  A    between atoms: _243  and  _245
REMARK   85  A    between atoms: _245  and  _246
REMARK   86  A    between atoms: _245  and  _248
REMARK   87  A    between atoms: _248  and  _249
REMARK   88  A    between atoms: _254  and  _256
REMARK   89  A    between atoms: _256  and  _257
REMARK   90  A    between atoms: _256  and  _259
REMARK   91  A    between atoms: _259  and  _260
REMARK   92  A    between atoms: _266  and  _268
REMARK   93  A    between atoms: _268  and  _269
REMARK   94  A    between atoms: _271  and  _273
REMARK   95  A    between atoms: _273  and  _274
REMARK   96  A    between atoms: _273  and  _276
REMARK   97  A    between atoms: _276  and  _277
REMARK   98  A    between atoms: _277  and  _278
REMARK   99  A    between atoms: _278  and  _279
REMARK  100  A    between atoms: _279  and  _280
REMARK  101  A    between atoms: _284  and  _286
REMARK  102  A    between atoms: _286  and  _287
REMARK  103  A    between atoms: _286  and  _289
REMARK  104  A    between atoms: _292  and  _294
REMARK  105  A    between atoms: _294  and  _295
REMARK  106  A    between atoms: _294  and  _297
REMARK  107  A    between atoms: _297  and  _298
REMARK  108  A    between atoms: _298  and  _299
REMARK  109  A    between atoms: _304  and  _306
REMARK  110  A    between atoms: _306  and  _307
REMARK  111  A    between atoms: _306  and  _309
REMARK  112  A    between atoms: _309  and  _310
REMARK  113  A    between atoms: _313  and  _315
REMARK  114  A    between atoms: _315  and  _316
REMARK  115  A    between atoms: _319  and  _321
REMARK  116  A    between atoms: _321  and  _322
REMARK  117  A    between atoms: _321  and  _324
REMARK  118  A    between atoms: _327  and  _329
REMARK  119  A    between atoms: _329  and  _330
REMARK  120  A    between atoms: _329  and  _332
REMARK  121  A    between atoms: _332  and  _333
REMARK  122  A    between atoms: _336  and  _338
REMARK  123  A    between atoms: _338  and  _339
REMARK  124  A    between atoms: _341  and  _343
REMARK  125  A    between atoms: _343  and  _344
REMARK  126  A    between atoms: _343  and  _346
REMARK  127  A    between atoms: _346  and  _347
REMARK  128  A    between atoms: _349  and  _351
REMARK  129  A    between atoms: _351  and  _352
REMARK  130  A    between atoms: _351  and  _354
REMARK  131  A    between atoms: _354  and  _355
REMARK  132  A    between atoms: _358  and  _360
REMARK  133  A    between atoms: _360  and  _361
REMARK  134  A    between atoms: _360  and  _363
REMARK  135  A    between atoms: _363  and  _364
REMARK  136  A    between atoms: _367  and  _369
REMARK  137  A    between atoms: _369  and  _370
REMARK  138  A    between atoms: _369  and  _372
REMARK  139  A    between atoms: _372  and  _373
REMARK  140  A    between atoms: _377  and  _378
REMARK  141  A    between atoms: _384  and  _385
REMARK  142  A    between atoms: _390  and  _392
REMARK  143  A    between atoms: _392  and  _393
REMARK  144  A    between atoms: _392  and  _395
REMARK  145  A    between atoms: _395  and  _396
REMARK  146  A    between atoms: _399  and  _401
REMARK  147  A    between atoms: _401  and  _402
REMARK  148  A    between atoms: _401  and  _404
REMARK  149  A    between atoms: _404  and  _405
REMARK  150  A    between atoms: _408  and  _410
REMARK  151  A    between atoms: _410  and  _411
REMARK  152  A    between atoms: _410  and  _413
REMARK  153  A    between atoms: _416  and  _418
REMARK  154  A    between atoms: _418  and  _419
REMARK  155  A    between atoms: _418  and  _421
REMARK  156  A    between atoms: _421  and  _422
REMARK  157  A    between atoms: _432  and  _434
REMARK  158  A    between atoms: _434  and  _435
REMARK  159  A    between atoms: _434  and  _437
REMARK  160  A    between atoms: _437  and  _438
REMARK  161  A    between atoms: _443  and  _445
REMARK  162  A    between atoms: _445  and  _446
REMARK  163  A    between atoms: _445  and  _448
REMARK  164  A    between atoms: _448  and  _449
REMARK  165  A    between atoms: _449  and  _450
REMARK  166  A    between atoms: _450  and  _451
REMARK                            x       y       z     vdW  Elec       q    Type
REMARK                         _______ _______ _______ _____ _____    ______ ____
ROOT
ATOM      1  CG  TYR A   1       1.911  -7.576  12.208  0.00  0.00    -0.020 A 
ATOM      2  CD2 TYR A   1       1.488  -7.559  13.542  0.00  0.00    -0.001 A 
ATOM      3  CE2 TYR A   1       0.616  -6.590  14.001  0.00  0.00    +0.036 A 
ATOM      4  CZ  TYR A   1       0.153  -5.621  13.120  0.00  0.00    +0.134 A 
ATOM      5  CE1 TYR A   1       0.558  -5.616  11.790  0.00  0.00    +0.036 A 
ATOM      6  CD1 TYR A   1       1.433  -6.589  11.345  0.00  0.00    -0.001 A 
ENDROOT
BRANCH   4   7
ATOM      7  OH  TYR A   1      -0.707  -4.653  13.571  0.00  0.00    -0.506 OA
ATOM      8  HH  TYR A   1      -1.553  -4.700  13.059  0.00  0.00    +0.292 HD
ENDBRANCH   4   7
BRANCH   1   9
ATOM      9  CB  TYR A   1       2.840  -8.649  11.713  0.00  0.00    +0.051 C 
BRANCH   9  10
ATOM     10  CA  TYR A   1       4.321  -8.290  11.832  0.00  0.00    +0.137 C 
BRANCH  10  11
ATOM     11  N   TYR A   1       4.673  -7.182  10.948  0.00  0.00    -0.239 NA
ATOM     12  H   TYR A   1       4.561  -7.288   9.919  0.00  0.00    +0.142 HD
ENDBRANCH  10  11
BRANCH  10  13
ATOM     13  C   TYR A   1       5.166  -9.516  11.521  0.00  0.00    +0.224 C 
ATOM     14  O   TYR A   1       4.804 -10.631  11.889  0.00  0.00    -0.287 OA
ENDBRANCH  10  13
ENDBRANCH   9  10
ENDBRANCH   1   9
TORSDOF 5
REMARK  Name = ../refined-set-2016/1if8/1if8_pocket.pdb
REMARK  166 active torsions:
REMARK  status: ('A' for Active; 'I' for Inactive)
REMARK    1  A    between atoms: _1  and  _3
REMARK    2  A    between atoms: _3  and  _4
REMARK    3  A    between atoms: _3  and  _6
REMARK    4  A    between atoms: _6  and  _7
REMARK    5  A    between atoms: _12  and  _14
REMARK    6  A    between atoms: _14  and  _15
REMARK    7  A    between atoms: _14  and  _17
REMARK    8  A    between atoms: _17  and  _18
REMARK    9  A    between atoms: _28  and  _30
REMARK   10  A    between atoms: _30  and  _31
REMARK   11  A    between atoms: _30  and  _33
REMARK   12  A    between atoms: _33  and  _34
REMARK   13  A    between atoms: _39  and  _40
REMARK   14  A    between atoms: _42  and  _44
REMARK   15  A    between atoms: _44  and  _45
REMARK   16  A    between atoms: _44  and  _47
REMARK   17  A    between atoms: _47  and  _48
REMARK   18  A    between atoms: _54  and  _56
REMARK   19  A    between atoms: _56  and  _57
REMARK   20  A    between atoms: _56  and  _59
REMARK   21  A    between atoms: _59  and  _60
REMARK   22  A    between atoms: _63  and  _64
REMARK   23  A    between atoms: _69  and  _71
REMARK   24  A    between atoms: _71  and  _72
REMARK   25  A    between atoms: _71  and  _74
REMARK   26  A    between atoms: _74  and  _75
REMARK   27  A    between atoms: _80  and  _82
REMARK   28  A    between atoms: _82  and  _83
REMARK   29  A    between atoms: _82  and  _85
REMARK   30  A    between atoms: _85  and  _86
REMARK   31  A    between atoms: _91  and  _93
REMARK   32  A    between atoms: _93  and  _94
REMARK   33  A    between atoms: _97  and  _99
REMARK   34  A    between atoms: _99  and  _100
REMARK   35  A    between atoms: _99  and  _102
REMARK   36  A    between atoms: _102  and  _103
REMARK   37  A    between atoms: _108  and  _110
REMARK   38  A    between atoms: _110  and  _111
REMARK   39  A    between atoms: _110  and  _113
REMARK   40  A    between atoms: _113  and  _114
REMARK   41  A    between atoms: _117  and  _119
REMARK   42  A    between atoms: _119  and  _120
REMARK   43  A    between atoms: _119  and  _122
REMARK   44  A    between atoms: _122  and  _123
REMARK   45  A    between atoms: _123  and  _124
REMARK   46  A    between atoms: _129  and  _131
REMARK   47  A    between atoms: _131  and  _132
REMARK   48  A    between atoms: _131  and  _134
REMARK   49  A    between atoms: _134  and  _135
REMARK   50  A    between atoms: _141  and  _143
REMARK   51  A    between atoms: _154  and  _157
REMARK   52  A    between atoms: _157  and  _158
REMARK   53  A    between atoms: _166  and  _167
REMARK   54  A    between atoms: _175  and  _177
REMARK   55  A    between atoms: _177  and  _178
REMARK   56  A    between atoms: _177  and  _180
REMARK   57  A    between atoms: _180  and  _181
REMARK   58  A    between atoms: _181  and  _182
REMARK   59  A    between atoms: _185  and  _187
REMARK   60  A    between atoms: _187  and  _188
REMARK   61  A    between atoms: _187  and  _190
REMARK   62  A    between atoms: _190  and  _191
REMARK   63  A    between atoms: _196  and  _198
REMARK   64  A    between atoms: _198  and  _199
REMARK   65  A    between atoms: _198  and  _201
REMARK   66  A    between atoms: _201  and  _202
REMARK   67  A    between atoms: _202  and  _203
REMARK   68  A    between atoms: _206  and  _208
REMARK   69  A    between atoms: _208  and  _209
REMARK   70  A    between atoms: _208  and  _211
REMARK   71  A    between atoms: _211  and  _212
REMARK   72  A    between atoms: _215  and  _217
REMARK   73  A    between atoms: _217  and  _218
REMARK   74  A    between atoms: _217  and  _220
REMARK   75  A    between atoms: _220  and  _221
REMARK   76  A    between atoms: _222  and  ZN_460
REMARK   77  A    between atoms: _226  and  _228
REMARK   78  A    between atoms: _228  and  _229
REMARK   79  A    between atoms: _228  and  _231
REMARK   80  A    between atoms: _231  and  _232
REMARK   81  A    between atoms: _235  and  _237
REMARK   82  A    between atoms: _237  and  _238
REMARK   83  A    between atoms: _237  and  _240
REMARK   84  A    between atoms: _243  and  _245
REMARK   85  A    between atoms: _245  and  _246
REMARK   86  A    between atoms: _245  and  _248
REMARK   87  A    between atoms: _248  and  _249
REMARK   88  A    between atoms: _254  and  _256
REMARK   89  A    between atoms: _256  and  _257
REMARK   90  A    between atoms: _256  and  _259
REMARK   91  A    between atoms: _259  and  _260
REMARK   92  A    between atoms: _266  and  _268
REMARK   93  A    between atoms: _268  and  _269
REMARK   94  A    between atoms: _271  and  _273
REMARK   95  A    between atoms: _273  and  _274
REMARK   96  A    between atoms: _273  and  _276
REMARK   97  A    between atoms: _276  and  _277
REMARK   98  A    between atoms: _277  and  _278
REMARK   99  A    between atoms: _278  and  _279
REMARK  100  A    between atoms: _279  and  _280
REMARK  101  A    between atoms: _284  and  _286
REMARK  102  A    between atoms: _286  and  _287
REMARK  103  A    between atoms: _286  and  _289
REMARK  104  A    between atoms: _292  and  _294
REMARK  105  A    between atoms: _294  and  _295
REMARK  106  A    between atoms: _294  and  _297
REMARK  107  A    between atoms: _297  and  _298
REMARK  108  A    between atoms: _298  and  _299
REMARK  109  A    between atoms: _304  and  _306
REMARK  110  A    between atoms: _306  and  _307
REMARK  111  A    between atoms: _306  and  _309
REMARK  112  A    between atoms: _309  and  _310
REMARK  113  A    between atoms: _313  and  _315
REMARK  114  A    between atoms: _315  and  _316
REMARK  115  A    between atoms: _319  and  _321
REMARK  116  A    between atoms: _321  and  _322
REMARK  117  A    between atoms: _321  and  _324
REMARK  118  A    between atoms: _327  and  _329
REMARK  119  A    between atoms: _329  and  _330
REMARK  120  A    between atoms: _329  and  _332
REMARK  121  A    between atoms: _332  and  _333
REMARK  122  A    between atoms: _336  and  _338
REMARK  123  A    between atoms: _338  and  _339
REMARK  124  A    between atoms: _341  and  _343
REMARK  125  A    between atoms: _343  and  _344
REMARK  126  A    between atoms: _343  and  _346
REMARK  127  A    between atoms: _346  and  _347
REMARK  128  A    between atoms: _349  and  _351
REMARK  129  A    between atoms: _351  and  _352
REMARK  130  A    between atoms: _351  and  _354
REMARK  131  A    between atoms: _354  and  _355
REMARK  132  A    between atoms: _358  and  _360
REMARK  133  A    between atoms: _360  and  _361
REMARK  134  A    between atoms: _360  and  _363
REMARK  135  A    between atoms: _363  and  _364
REMARK  136  A    between atoms: _367  and  _369
REMARK  137  A    between atoms: _369  and  _370
REMARK  138  A    between atoms: _369  and  _372
REMARK  139  A    between atoms: _372  and  _373
REMARK  140  A    between atoms: _377  and  _378
REMARK  141  A    between atoms: _384  and  _385
REMARK  142  A    between atoms: _390  and  _392
REMARK  143  A    between atoms: _392  and  _393
REMARK  144  A    between atoms: _392  and  _395
REMARK  145  A    between atoms: _395  and  _396
REMARK  146  A    between atoms: _399  and  _401
REMARK  147  A    between atoms: _401  and  _402
REMARK  148  A    between atoms: _401  and  _404
REMARK  149  A    between atoms: _404  and  _405
REMARK  150  A    between atoms: _408  and  _410
REMARK  151  A    between atoms: _410  and  _411
REMARK  152  A    between atoms: _410  and  _413
REMARK  153  A    between atoms: _416  and  _418
REMARK  154  A    between atoms: _418  and  _419
REMARK  155  A    between atoms: _418  and  _421
REMARK  156  A    between atoms: _421  and  _422
REMARK  157  A    between atoms: _432  and  _434
REMARK  158  A    between atoms: _434  and  _435
REMARK  159  A    between atoms: _434  and  _437
REMARK  160  A    between atoms: _437  and  _438
REMARK  161  A    between atoms: _443  and  _445
REMARK  162  A    between atoms: _445  and  _446
REMARK  163  A    between atoms: _445  and  _448
REMARK  164  A    between atoms: _448  and  _449
REMARK  165  A    between atoms: _449  and  _450
REMARK  166  A    between atoms: _450  and  _451
REMARK                            x       y       z     vdW  Elec       q    Type
REMARK                         _______ _______ _______ _____ _____    ______ ____
ROOT
ATOM      1  CB  PHE A   1       7.427   2.849  19.444  0.00  0.00    +0.051 C 
ENDROOT
BRANCH   1   2
ATOM      2  CG  PHE A   1       7.315   3.181  17.974  0.00  0.00    -0.020 A 
ATOM      3  CD2 PHE A   1       6.996   4.469  17.560  0.00  0.00    -0.004 A 
ATOM      4  CE2 PHE A   1       6.960   4.801  16.191  0.00  0.00    -0.000 A 
ATOM      5  CZ  PHE A   1       7.244   3.834  15.225  0.00  0.00    -0.000 A 
ATOM      6  CE1 PHE A   1       7.560   2.540  15.626  0.00  0.00    -0.000 A 
ATOM      7  CD1 PHE A   1       7.593   2.218  17.005  0.00  0.00    -0.004 A 
ENDBRANCH   1   2
BRANCH   1   8
ATOM      8  CA  PHE A   1       8.779   3.222  20.054  0.00  0.00    +0.137 C 
BRANCH   8   9
ATOM      9  N   PHE A   1       9.870   2.650  19.259  0.00  0.00    -0.239 NA
ATOM     10  H   PHE A   1       9.960   1.616  19.186  0.00  0.00    +0.142 HD
ENDBRANCH   8   9
BRANCH   8  11
ATOM     11  C   PHE A   1       8.910   2.741  21.492  0.00  0.00    +0.224 C 
ATOM     12  O   PHE A   1       8.354   1.722  21.873  0.00  0.00    -0.287 OA
ENDBRANCH   8  11
ENDBRANCH   1   8
TORSDOF 4
REMARK  Name = ../refined-set-2016/1if8/1if8_pocket.pdb
REMARK  166 active torsions:
REMARK  status: ('A' for Active; 'I' for Inactive)
REMARK    1  A    between atoms: _1  and  _3
REMARK    2  A    between atoms: _3  and  _4
REMARK    3  A    between atoms: _3  and  _6
REMARK    4  A    between atoms: _6  and  _7
REMARK    5  A    between atoms: _12  and  _14
REMARK    6  A    between atoms: _14  and  _15
REMARK    7  A    between atoms: _14  and  _17
REMARK    8  A    between atoms: _17  and  _18
REMARK    9  A    between atoms: _28  and  _30
REMARK   10  A    between atoms: _30  and  _31
REMARK   11  A    between atoms: _30  and  _33
REMARK   12  A    between atoms: _33  and  _34
REMARK   13  A    between atoms: _39  and  _40
REMARK   14  A    between atoms: _42  and  _44
REMARK   15  A    between atoms: _44  and  _45
REMARK   16  A    between atoms: _44  and  _47
REMARK   17  A    between atoms: _47  and  _48
REMARK   18  A    between atoms: _54  and  _56
REMARK   19  A    between atoms: _56  and  _57
REMARK   20  A    between atoms: _56  and  _59
REMARK   21  A    between atoms: _59  and  _60
REMARK   22  A    between atoms: _63  and  _64
REMARK   23  A    between atoms: _69  and  _71
REMARK   24  A    between atoms: _71  and  _72
REMARK   25  A    between atoms: _71  and  _74
REMARK   26  A    between atoms: _74  and  _75
REMARK   27  A    between atoms: _80  and  _82
REMARK   28  A    between atoms: _82  and  _83
REMARK   29  A    between atoms: _82  and  _85
REMARK   30  A    between atoms: _85  and  _86
REMARK   31  A    between atoms: _91  and  _93
REMARK   32  A    between atoms: _93  and  _94
REMARK   33  A    between atoms: _97  and  _99
REMARK   34  A    between atoms: _99  and  _100
REMARK   35  A    between atoms: _99  and  _102
REMARK   36  A    between atoms: _102  and  _103
REMARK   37  A    between atoms: _108  and  _110
REMARK   38  A    between atoms: _110  and  _111
REMARK   39  A    between atoms: _110  and  _113
REMARK   40  A    between atoms: _113  and  _114
REMARK   41  A    between atoms: _117  and  _119
REMARK   42  A    between atoms: _119  and  _120
REMARK   43  A    between atoms: _119  and  _122
REMARK   44  A    between atoms: _122  and  _123
REMARK   45  A    between atoms: _123  and  _124
REMARK   46  A    between atoms: _129  and  _131
REMARK   47  A    between atoms: _131  and  _132
REMARK   48  A    between atoms: _131  and  _134
REMARK   49  A    between atoms: _134  and  _135
REMARK   50  A    between atoms: _141  and  _143
REMARK   51  A    between atoms: _154  and  _157
REMARK   52  A    between atoms: _157  and  _158
REMARK   53  A    between atoms: _166  and  _167
REMARK   54  A    between atoms: _175  and  _177
REMARK   55  A    between atoms: _177  and  _178
REMARK   56  A    between atoms: _177  and  _180
REMARK   57  A    between atoms: _180  and  _181
REMARK   58  A    between atoms: _181  and  _182
REMARK   59  A    between atoms: _185  and  _187
REMARK   60  A    between atoms: _187  and  _188
REMARK   61  A    between atoms: _187  and  _190
REMARK   62  A    between atoms: _190  and  _191
REMARK   63  A    between atoms: _196  and  _198
REMARK   64  A    between atoms: _198  and  _199
REMARK   65  A    between atoms: _198  and  _201
REMARK   66  A    between atoms: _201  and  _202
REMARK   67  A    between atoms: _202  and  _203
REMARK   68  A    between atoms: _206  and  _208
REMARK   69  A    between atoms: _208  and  _209
REMARK   70  A    between atoms: _208  and  _211
REMARK   71  A    between atoms: _211  and  _212
REMARK   72  A    between atoms: _215  and  _217
REMARK   73  A    between atoms: _217  and  _218
REMARK   74  A    between atoms: _217  and  _220
REMARK   75  A    between atoms: _220  and  _221
REMARK   76  A    between atoms: _222  and  ZN_460
REMARK   77  A    between atoms: _226  and  _228
REMARK   78  A    between atoms: _228  and  _229
REMARK   79  A    between atoms: _228  and  _231
REMARK   80  A    between atoms: _231  and  _232
REMARK   81  A    between atoms: _235  and  _237
REMARK   82  A    between atoms: _237  and  _238
REMARK   83  A    between atoms: _237  and  _240
REMARK   84  A    between atoms: _243  and  _245
REMARK   85  A    between atoms: _245  and  _246
REMARK   86  A    between atoms: _245  and  _248
REMARK   87  A    between atoms: _248  and  _249
REMARK   88  A    between atoms: _254  and  _256
REMARK   89  A    between atoms: _256  and  _257
REMARK   90  A    between atoms: _256  and  _259
REMARK   91  A    between atoms: _259  and  _260
REMARK   92  A    between atoms: _266  and  _268
REMARK   93  A    between atoms: _268  and  _269
REMARK   94  A    between atoms: _271  and  _273
REMARK   95  A    between atoms: _273  and  _274
REMARK   96  A    between atoms: _273  and  _276
REMARK   97  A    between atoms: _276  and  _277
REMARK   98  A    between atoms: _277  and  _278
REMARK   99  A    between atoms: _278  and  _279
REMARK  100  A    between atoms: _279  and  _280
REMARK  101  A    between atoms: _284  and  _286
REMARK  102  A    between atoms: _286  and  _287
REMARK  103  A    between atoms: _286  and  _289
REMARK  104  A    between atoms: _292  and  _294
REMARK  105  A    between atoms: _294  and  _295
REMARK  106  A    between atoms: _294  and  _297
REMARK  107  A    between atoms: _297  and  _298
REMARK  108  A    between atoms: _298  and  _299
REMARK  109  A    between atoms: _304  and  _306
REMARK  110  A    between atoms: _306  and  _307
REMARK  111  A    between atoms: _306  and  _309
REMARK  112  A    between atoms: _309  and  _310
REMARK  113  A    between atoms: _313  and  _315
REMARK  114  A    between atoms: _315  and  _316
REMARK  115  A    between atoms: _319  and  _321
REMARK  116  A    between atoms: _321  and  _322
REMARK  117  A    between atoms: _321  and  _324
REMARK  118  A    between atoms: _327  and  _329
REMARK  119  A    between atoms: _329  and  _330
REMARK  120  A    between atoms: _329  and  _332
REMARK  121  A    between atoms: _332  and  _333
REMARK  122  A    between atoms: _336  and  _338
REMARK  123  A    between atoms: _338  and  _339
REMARK  124  A    between atoms: _341  and  _343
REMARK  125  A    between atoms: _343  and  _344
REMARK  126  A    between atoms: _343  and  _346
REMARK  127  A    between atoms: _346  and  _347
REMARK  128  A    between atoms: _349  and  _351
REMARK  129  A    between atoms: _351  and  _352
REMARK  130  A    between atoms: _351  and  _354
REMARK  131  A    between atoms: _354  and  _355
REMARK  132  A    between atoms: _358  and  _360
REMARK  133  A    between atoms: _360  and  _361
REMARK  134  A    between atoms: _360  and  _363
REMARK  135  A    between atoms: _363  and  _364
REMARK  136  A    between atoms: _367  and  _369
REMARK  137  A    between atoms: _369  and  _370
REMARK  138  A    between atoms: _369  and  _372
REMARK  139  A    between atoms: _372  and  _373
REMARK  140  A    between atoms: _377  and  _378
REMARK  141  A    between atoms: _384  and  _385
REMARK  142  A    between atoms: _390  and  _392
REMARK  143  A    between atoms: _392  and  _393
REMARK  144  A    between atoms: _392  and  _395
REMARK  145  A    between atoms: _395  and  _396
REMARK  146  A    between atoms: _399  and  _401
REMARK  147  A    between atoms: _401  and  _402
REMARK  148  A    between atoms: _401  and  _404
REMARK  149  A    between atoms: _404  and  _405
REMARK  150  A    between atoms: _408  and  _410
REMARK  151  A    between atoms: _410  and  _411
REMARK  152  A    between atoms: _410  and  _413
REMARK  153  A    between atoms: _416  and  _418
REMARK  154  A    between atoms: _418  and  _419
REMARK  155  A    between atoms: _418  and  _421
REMARK  156  A    between atoms: _421  and  _422
REMARK  157  A    between atoms: _432  and  _434
REMARK  158  A    between atoms: _434  and  _435
REMARK  159  A    between atoms: _434  and  _437
REMARK  160  A    between atoms: _437  and  _438
REMARK  161  A    between atoms: _443  and  _445
REMARK  162  A    between atoms: _445  and  _446
REMARK  163  A    between atoms: _445  and  _448
REMARK  164  A    between atoms: _448  and  _449
REMARK  165  A    between atoms: _449  and  _450
REMARK  166  A    between atoms: _450  and  _451
REMARK                            x       y       z     vdW  Elec       q    Type
REMARK                         _______ _______ _______ _____ _____    ______ ____
ROOT
ATOM      1  C   SER A   1      -2.416  -3.745  23.779  0.00  0.00    +0.244 C 
ATOM      2  N   PRO A   2      -3.040  -4.898  23.504  0.00  0.00    -0.273 N 
ATOM      3  CA  PRO A   2      -4.257  -5.403  24.133  0.00  0.00    +0.140 C 
ATOM      4  CB  PRO A   2      -4.807  -6.324  23.057  0.00  0.00    +0.030 C 
ATOM      5  CG  PRO A   2      -3.569  -6.982  22.573  0.00  0.00    +0.024 C 
ATOM      6  CD  PRO A   2      -2.595  -5.825  22.449  0.00  0.00    +0.094 C 
ATOM      7  O   SER A   1      -1.509  -3.327  23.081  0.00  0.00    -0.273 OA
ENDROOT
BRANCH   3   8
ATOM      8  C   PRO A   2      -3.900  -6.179  25.390  0.00  0.00    +0.227 C 
ATOM      9  O   PRO A   2      -2.720  -6.397  25.652  0.00  0.00    -0.286 OA
ENDBRANCH   3   8
BRANCH   1  10
ATOM     10  CA  SER A   1      -3.015  -2.855  24.858  0.00  0.00    +0.175 C 
BRANCH  10  11
ATOM     11  N   SER A   1      -1.986  -1.921  25.277  0.00  0.00    -0.236 NA
ATOM     12  H   SER A   1      -1.554  -1.294  24.569  0.00  0.00    +0.142 HD
ENDBRANCH  10  11
BRANCH  10  13
ATOM     13  CB  SER A   1      -4.195  -2.077  24.286  0.00  0.00    +0.163 C 
BRANCH  13  14
ATOM     14  OG  SER A   1      -4.771  -1.246  25.263  0.00  0.00    -0.380 OA
ATOM     15  H   SER A   1      -5.091  -1.800  26.019  0.00  0.00    +0.211 HD
ENDBRANCH  13  14
ENDBRANCH  10  13
ENDBRANCH   1  10
TORSDOF 5
REMARK  Name = ../refined-set-2016/1if8/1if8_pocket.pdb
REMARK  166 active torsions:
REMARK  status: ('A' for Active; 'I' for Inactive)
REMARK    1  A    between atoms: _1  and  _3
REMARK    2  A    between atoms: _3  and  _4
REMARK    3  A    between atoms: _3  and  _6
REMARK    4  A    between atoms: _6  and  _7
REMARK    5  A    between atoms: _12  and  _14
REMARK    6  A    between atoms: _14  and  _15
REMARK    7  A    between atoms: _14  and  _17
REMARK    8  A    between atoms: _17  and  _18
REMARK    9  A    between atoms: _28  and  _30
REMARK   10  A    between atoms: _30  and  _31
REMARK   11  A    between atoms: _30  and  _33
REMARK   12  A    between atoms: _33  and  _34
REMARK   13  A    between atoms: _39  and  _40
REMARK   14  A    between atoms: _42  and  _44
REMARK   15  A    between atoms: _44  and  _45
REMARK   16  A    between atoms: _44  and  _47
REMARK   17  A    between atoms: _47  and  _48
REMARK   18  A    between atoms: _54  and  _56
REMARK   19  A    between atoms: _56  and  _57
REMARK   20  A    between atoms: _56  and  _59
REMARK   21  A    between atoms: _59  and  _60
REMARK   22  A    between atoms: _63  and  _64
REMARK   23  A    between atoms: _69  and  _71
REMARK   24  A    between atoms: _71  and  _72
REMARK   25  A    between atoms: _71  and  _74
REMARK   26  A    between atoms: _74  and  _75
REMARK   27  A    between atoms: _80  and  _82
REMARK   28  A    between atoms: _82  and  _83
REMARK   29  A    between atoms: _82  and  _85
REMARK   30  A    between atoms: _85  and  _86
REMARK   31  A    between atoms: _91  and  _93
REMARK   32  A    between atoms: _93  and  _94
REMARK   33  A    between atoms: _97  and  _99
REMARK   34  A    between atoms: _99  and  _100
REMARK   35  A    between atoms: _99  and  _102
REMARK   36  A    between atoms: _102  and  _103
REMARK   37  A    between atoms: _108  and  _110
REMARK   38  A    between atoms: _110  and  _111
REMARK   39  A    between atoms: _110  and  _113
REMARK   40  A    between atoms: _113  and  _114
REMARK   41  A    between atoms: _117  and  _119
REMARK   42  A    between atoms: _119  and  _120
REMARK   43  A    between atoms: _119  and  _122
REMARK   44  A    between atoms: _122  and  _123
REMARK   45  A    between atoms: _123  and  _124
REMARK   46  A    between atoms: _129  and  _131
REMARK   47  A    between atoms: _131  and  _132
REMARK   48  A    between atoms: _131  and  _134
REMARK   49  A    between atoms: _134  and  _135
REMARK   50  A    between atoms: _141  and  _143
REMARK   51  A    between atoms: _154  and  _157
REMARK   52  A    between atoms: _157  and  _158
REMARK   53  A    between atoms: _166  and  _167
REMARK   54  A    between atoms: _175  and  _177
REMARK   55  A    between atoms: _177  and  _178
REMARK   56  A    between atoms: _177  and  _180
REMARK   57  A    between atoms: _180  and  _181
REMARK   58  A    between atoms: _181  and  _182
REMARK   59  A    between atoms: _185  and  _187
REMARK   60  A    between atoms: _187  and  _188
REMARK   61  A    between atoms: _187  and  _190
REMARK   62  A    between atoms: _190  and  _191
REMARK   63  A    between atoms: _196  and  _198
REMARK   64  A    between atoms: _198  and  _199
REMARK   65  A    between atoms: _198  and  _201
REMARK   66  A    between atoms: _201  and  _202
REMARK   67  A    between atoms: _202  and  _203
REMARK   68  A    between atoms: _206  and  _208
REMARK   69  A    between atoms: _208  and  _209
REMARK   70  A    between atoms: _208  and  _211
REMARK   71  A    between atoms: _211  and  _212
REMARK   72  A    between atoms: _215  and  _217
REMARK   73  A    between atoms: _217  and  _218
REMARK   74  A    between atoms: _217  and  _220
REMARK   75  A    between atoms: _220  and  _221
REMARK   76  A    between atoms: _222  and  ZN_460
REMARK   77  A    between atoms: _226  and  _228
REMARK   78  A    between atoms: _228  and  _229
REMARK   79  A    between atoms: _228  and  _231
REMARK   80  A    between atoms: _231  and  _232
REMARK   81  A    between atoms: _235  and  _237
REMARK   82  A    between atoms: _237  and  _238
REMARK   83  A    between atoms: _237  and  _240
REMARK   84  A    between atoms: _243  and  _245
REMARK   85  A    between atoms: _245  and  _246
REMARK   86  A    between atoms: _245  and  _248
REMARK   87  A    between atoms: _248  and  _249
REMARK   88  A    between atoms: _254  and  _256
REMARK   89  A    between atoms: _256  and  _257
REMARK   90  A    between atoms: _256  and  _259
REMARK   91  A    between atoms: _259  and  _260
REMARK   92  A    between atoms: _266  and  _268
REMARK   93  A    between atoms: _268  and  _269
REMARK   94  A    between atoms: _271  and  _273
REMARK   95  A    between atoms: _273  and  _274
REMARK   96  A    between atoms: _273  and  _276
REMARK   97  A    between atoms: _276  and  _277
REMARK   98  A    between atoms: _277  and  _278
REMARK   99  A    between atoms: _278  and  _279
REMARK  100  A    between atoms: _279  and  _280
REMARK  101  A    between atoms: _284  and  _286
REMARK  102  A    between atoms: _286  and  _287
REMARK  103  A    between atoms: _286  and  _289
REMARK  104  A    between atoms: _292  and  _294
REMARK  105  A    between atoms: _294  and  _295
REMARK  106  A    between atoms: _294  and  _297
REMARK  107  A    between atoms: _297  and  _298
REMARK  108  A    between atoms: _298  and  _299
REMARK  109  A    between atoms: _304  and  _306
REMARK  110  A    between atoms: _306  and  _307
REMARK  111  A    between atoms: _306  and  _309
REMARK  112  A    between atoms: _309  and  _310
REMARK  113  A    between atoms: _313  and  _315
REMARK  114  A    between atoms: _315  and  _316
REMARK  115  A    between atoms: _319  and  _321
REMARK  116  A    between atoms: _321  and  _322
REMARK  117  A    between atoms: _321  and  _324
REMARK  118  A    between atoms: _327  and  _329
REMARK  119  A    between atoms: _329  and  _330
REMARK  120  A    between atoms: _329  and  _332
REMARK  121  A    between atoms: _332  and  _333
REMARK  122  A    between atoms: _336  and  _338
REMARK  123  A    between atoms: _338  and  _339
REMARK  124  A    between atoms: _341  and  _343
REMARK  125  A    between atoms: _343  and  _344
REMARK  126  A    between atoms: _343  and  _346
REMARK  127  A    between atoms: _346  and  _347
REMARK  128  A    between atoms: _349  and  _351
REMARK  129  A    between atoms: _351  and  _352
REMARK  130  A    between atoms: _351  and  _354
REMARK  131  A    between atoms: _354  and  _355
REMARK  132  A    between atoms: _358  and  _360
REMARK  133  A    between atoms: _360  and  _361
REMARK  134  A    between atoms: _360  and  _363
REMARK  135  A    between atoms: _363  and  _364
REMARK  136  A    between atoms: _367  and  _369
REMARK  137  A    between atoms: _369  and  _370
REMARK  138  A    between atoms: _369  and  _372
REMARK  139  A    between atoms: _372  and  _373
REMARK  140  A    between atoms: _377  and  _378
REMARK  141  A    between atoms: _384  and  _385
REMARK  142  A    between atoms: _390  and  _392
REMARK  143  A    between atoms: _392  and  _393
REMARK  144  A    between atoms: _392  and  _395
REMARK  145  A    between atoms: _395  and  _396
REMARK  146  A    between atoms: _399  and  _401
REMARK  147  A    between atoms: _401  and  _402
REMARK  148  A    between atoms: _401  and  _404
REMARK  149  A    between atoms: _404  and  _405
REMARK  150  A    between atoms: _408  and  _410
REMARK  151  A    between atoms: _410  and  _411
REMARK  152  A    between atoms: _410  and  _413
REMARK  153  A    between atoms: _416  and  _418
REMARK  154  A    between atoms: _418  and  _419
REMARK  155  A    between atoms: _418  and  _421
REMARK  156  A    between atoms: _421  and  _422
REMARK  157  A    between atoms: _432  and  _434
REMARK  158  A    between atoms: _434  and  _435
REMARK  159  A    between atoms: _434  and  _437
REMARK  160  A    between atoms: _437  and  _438
REMARK  161  A    between atoms: _443  and  _445
REMARK  162  A    between atoms: _445  and  _446
REMARK  163  A    between atoms: _445  and  _448
REMARK  164  A    between atoms: _448  and  _449
REMARK  165  A    between atoms: _449  and  _450
REMARK  166  A    between atoms: _450  and  _451
REMARK                            x       y       z     vdW  Elec       q    Type
REMARK                         _______ _______ _______ _____ _____    ______ ____
ROOT
ATOM      1  CB  ASN A   1      -2.691   1.544   5.291  0.00  0.00    +0.110 C 
ENDROOT
BRANCH   1   2
ATOM      2  CG  ASN A   1      -2.949   0.721   6.567  0.00  0.00    +0.221 C 
ATOM      3  ND2 ASN A   1      -3.467   1.392   7.582  0.00  0.00    -0.329 N 
ATOM      4 HD21 ASN A   1      -3.662   0.907   8.481  0.00  0.00    +0.145 HD
ATOM      5 HD22 ASN A   1      -3.679   2.405   7.481  0.00  0.00    +0.145 HD
ATOM      6  OD1 ASN A   1      -2.678  -0.495   6.641  0.00  0.00    -0.275 OA
ENDBRANCH   1   2
BRANCH   1   7
ATOM      7  CA  ASN A   1      -2.305   0.674   4.070  0.00  0.00    +0.142 C 
BRANCH   7   8
ATOM      8  N   ASN A   1      -3.450  -0.142   3.636  0.00  0.00    -0.239 NA
ATOM      9  H   ASN A   1      -3.985  -0.679   4.348  0.00  0.00    +0.142 HD
ENDBRANCH   7   8
BRANCH   7  10
ATOM     10  C   ASN A   1      -1.046  -0.156   4.382  0.00  0.00    +0.225 C 
ATOM     11  O   ASN A   1      -0.086   0.338   4.989  0.00  0.00    -0.287 OA
ENDBRANCH   7  10
ENDBRANCH   1   7
TORSDOF 4
REMARK  Name = ../refined-set-2016/1if8/1if8_pocket.pdb
REMARK  166 active torsions:
REMARK  status: ('A' for Active; 'I' for Inactive)
REMARK    1  A    between atoms: _1  and  _3
REMARK    2  A    between atoms: _3  and  _4
REMARK    3  A    between atoms: _3  and  _6
REMARK    4  A    between atoms: _6  and  _7
REMARK    5  A    between atoms: _12  and  _14
REMARK    6  A    between atoms: _14  and  _15
REMARK    7  A    between atoms: _14  and  _17
REMARK    8  A    between atoms: _17  and  _18
REMARK    9  A    between atoms: _28  and  _30
REMARK   10  A    between atoms: _30  and  _31
REMARK   11  A    between atoms: _30  and  _33
REMARK   12  A    between atoms: _33  and  _34
REMARK   13  A    between atoms: _39  and  _40
REMARK   14  A    between atoms: _42  and  _44
REMARK   15  A    between atoms: _44  and  _45
REMARK   16  A    between atoms: _44  and  _47
REMARK   17  A    between atoms: _47  and  _48
REMARK   18  A    between atoms: _54  and  _56
REMARK   19  A    between atoms: _56  and  _57
REMARK   20  A    between atoms: _56  and  _59
REMARK   21  A    between atoms: _59  and  _60
REMARK   22  A    between atoms: _63  and  _64
REMARK   23  A    between atoms: _69  and  _71
REMARK   24  A    between atoms: _71  and  _72
REMARK   25  A    between atoms: _71  and  _74
REMARK   26  A    between atoms: _74  and  _75
REMARK   27  A    between atoms: _80  and  _82
REMARK   28  A    between atoms: _82  and  _83
REMARK   29  A    between atoms: _82  and  _85
REMARK   30  A    between atoms: _85  and  _86
REMARK   31  A    between atoms: _91  and  _93
REMARK   32  A    between atoms: _93  and  _94
REMARK   33  A    between atoms: _97  and  _99
REMARK   34  A    between atoms: _99  and  _100
REMARK   35  A    between atoms: _99  and  _102
REMARK   36  A    between atoms: _102  and  _103
REMARK   37  A    between atoms: _108  and  _110
REMARK   38  A    between atoms: _110  and  _111
REMARK   39  A    between atoms: _110  and  _113
REMARK   40  A    between atoms: _113  and  _114
REMARK   41  A    between atoms: _117  and  _119
REMARK   42  A    between atoms: _119  and  _120
REMARK   43  A    between atoms: _119  and  _122
REMARK   44  A    between atoms: _122  and  _123
REMARK   45  A    between atoms: _123  and  _124
REMARK   46  A    between atoms: _129  and  _131
REMARK   47  A    between atoms: _131  and  _132
REMARK   48  A    between atoms: _131  and  _134
REMARK   49  A    between atoms: _134  and  _135
REMARK   50  A    between atoms: _141  and  _143
REMARK   51  A    between atoms: _154  and  _157
REMARK   52  A    between atoms: _157  and  _158
REMARK   53  A    between atoms: _166  and  _167
REMARK   54  A    between atoms: _175  and  _177
REMARK   55  A    between atoms: _177  and  _178
REMARK   56  A    between atoms: _177  and  _180
REMARK   57  A    between atoms: _180  and  _181
REMARK   58  A    between atoms: _181  and  _182
REMARK   59  A    between atoms: _185  and  _187
REMARK   60  A    between atoms: _187  and  _188
REMARK   61  A    between atoms: _187  and  _190
REMARK   62  A    between atoms: _190  and  _191
REMARK   63  A    between atoms: _196  and  _198
REMARK   64  A    between atoms: _198  and  _199
REMARK   65  A    between atoms: _198  and  _201
REMARK   66  A    between atoms: _201  and  _202
REMARK   67  A    between atoms: _202  and  _203
REMARK   68  A    between atoms: _206  and  _208
REMARK   69  A    between atoms: _208  and  _209
REMARK   70  A    between atoms: _208  and  _211
REMARK   71  A    between atoms: _211  and  _212
REMARK   72  A    between atoms: _215  and  _217
REMARK   73  A    between atoms: _217  and  _218
REMARK   74  A    between atoms: _217  and  _220
REMARK   75  A    between atoms: _220  and  _221
REMARK   76  A    between atoms: _222  and  ZN_460
REMARK   77  A    between atoms: _226  and  _228
REMARK   78  A    between atoms: _228  and  _229
REMARK   79  A    between atoms: _228  and  _231
REMARK   80  A    between atoms: _231  and  _232
REMARK   81  A    between atoms: _235  and  _237
REMARK   82  A    between atoms: _237  and  _238
REMARK   83  A    between atoms: _237  and  _240
REMARK   84  A    between atoms: _243  and  _245
REMARK   85  A    between atoms: _245  and  _246
REMARK   86  A    between atoms: _245  and  _248
REMARK   87  A    between atoms: _248  and  _249
REMARK   88  A    between atoms: _254  and  _256
REMARK   89  A    between atoms: _256  and  _257
REMARK   90  A    between atoms: _256  and  _259
REMARK   91  A    between atoms: _259  and  _260
REMARK   92  A    between atoms: _266  and  _268
REMARK   93  A    between atoms: _268  and  _269
REMARK   94  A    between atoms: _271  and  _273
REMARK   95  A    between atoms: _273  and  _274
REMARK   96  A    between atoms: _273  and  _276
REMARK   97  A    between atoms: _276  and  _277
REMARK   98  A    between atoms: _277  and  _278
REMARK   99  A    between atoms: _278  and  _279
REMARK  100  A    between atoms: _279  and  _280
REMARK  101  A    between atoms: _284  and  _286
REMARK  102  A    between atoms: _286  and  _287
REMARK  103  A    between atoms: _286  and  _289
REMARK  104  A    between atoms: _292  and  _294
REMARK  105  A    between atoms: _294  and  _295
REMARK  106  A    between atoms: _294  and  _297
REMARK  107  A    between atoms: _297  and  _298
REMARK  108  A    between atoms: _298  and  _299
REMARK  109  A    between atoms: _304  and  _306
REMARK  110  A    between atoms: _306  and  _307
REMARK  111  A    between atoms: _306  and  _309
REMARK  112  A    between atoms: _309  and  _310
REMARK  113  A    between atoms: _313  and  _315
REMARK  114  A    between atoms: _315  and  _316
REMARK  115  A    between atoms: _319  and  _321
REMARK  116  A    between atoms: _321  and  _322
REMARK  117  A    between atoms: _321  and  _324
REMARK  118  A    between atoms: _327  and  _329
REMARK  119  A    between atoms: _329  and  _330
REMARK  120  A    between atoms: _329  and  _332
REMARK  121  A    between atoms: _332  and  _333
REMARK  122  A    between atoms: _336  and  _338
REMARK  123  A    between atoms: _338  and  _339
REMARK  124  A    between atoms: _341  and  _343
REMARK  125  A    between atoms: _343  and  _344
REMARK  126  A    between atoms: _343  and  _346
REMARK  127  A    between atoms: _346  and  _347
REMARK  128  A    between atoms: _349  and  _351
REMARK  129  A    between atoms: _351  and  _352
REMARK  130  A    between atoms: _351  and  _354
REMARK  131  A    between atoms: _354  and  _355
REMARK  132  A    between atoms: _358  and  _360
REMARK  133  A    between atoms: _360  and  _361
REMARK  134  A    between atoms: _360  and  _363
REMARK  135  A    between atoms: _363  and  _364
REMARK  136  A    between atoms: _367  and  _369
REMARK  137  A    between atoms: _369  and  _370
REMARK  138  A    between atoms: _369  and  _372
REMARK  139  A    between atoms: _372  and  _373
REMARK  140  A    between atoms: _377  and  _378
REMARK  141  A    between atoms: _384  and  _385
REMARK  142  A    between atoms: _390  and  _392
REMARK  143  A    between atoms: _392  and  _393
REMARK  144  A    between atoms: _392  and  _395
REMARK  145  A    between atoms: _395  and  _396
REMARK  146  A    between atoms: _399  and  _401
REMARK  147  A    between atoms: _401  and  _402
REMARK  148  A    between atoms: _401  and  _404
REMARK  149  A    between atoms: _404  and  _405
REMARK  150  A    between atoms: _408  and  _410
REMARK  151  A    between atoms: _410  and  _411
REMARK  152  A    between atoms: _410  and  _413
REMARK  153  A    between atoms: _416  and  _418
REMARK  154  A    between atoms: _418  and  _419
REMARK  155  A    between atoms: _418  and  _421
REMARK  156  A    between atoms: _421  and  _422
REMARK  157  A    between atoms: _432  and  _434
REMARK  158  A    between atoms: _434  and  _435
REMARK  159  A    between atoms: _434  and  _437
REMARK  160  A    between atoms: _437  and  _438
REMARK  161  A    between atoms: _443  and  _445
REMARK  162  A    between atoms: _445  and  _446
REMARK  163  A    between atoms: _445  and  _448
REMARK  164  A    between atoms: _448  and  _449
REMARK  165  A    between atoms: _449  and  _450
REMARK  166  A    between atoms: _450  and  _451
REMARK                            x       y       z     vdW  Elec       q    Type
REMARK                         _______ _______ _______ _____ _____    ______ ____
ROOT
ATOM      1  CA  HIS A   1      -0.970  -3.382   7.817  0.00  0.00    +0.151 C 
ENDROOT
BRANCH   1   2
ATOM      2  C   HIS A   1      -2.322  -4.065   7.984  0.00  0.00    +0.239 C 
ATOM      3  O   HIS A   1      -2.442  -5.113   8.630  0.00  0.00    -0.274 OA
ATOM      4  N   ALA A   2      -3.320  -3.453   7.360  0.00  0.00    -0.298 N 
ATOM      5  H   ALA A   2      -3.094  -2.594   6.819  0.00  0.00    +0.150 HD
BRANCH   4   6
ATOM      6  CA  ALA A   2      -4.702  -3.890   7.375  0.00  0.00    +0.137 C 
ATOM      7  CB  ALA A   2      -5.300  -3.627   8.773  0.00  0.00    +0.030 C 
BRANCH   6   8
ATOM      8  C   ALA A   2      -5.434  -3.031   6.338  0.00  0.00    +0.227 C 
ATOM      9  O   ALA A   2      -4.800  -2.314   5.554  0.00  0.00    -0.286 OA
ENDBRANCH   6   8
ENDBRANCH   4   6
ENDBRANCH   1   2
BRANCH   1  10
ATOM     10  N   HIS A   1      -0.898  -2.724   6.490  0.00  0.00    -0.238 NA
ATOM     11  H   HIS A   1      -1.595  -1.989   6.254  0.00  0.00    +0.142 HD
ENDBRANCH   1  10
BRANCH   1  12
ATOM     12  CB  HIS A   1      -0.799  -2.354   8.943  0.00  0.00    +0.074 C 
BRANCH  12  13
ATOM     13  CG  HIS A   1       0.364  -1.440   8.743  0.00  0.00    +0.082 A 
ATOM     14  ND1 HIS A   1       0.227  -0.074   8.625  0.00  0.00    -0.227 NA
ATOM     15  CE1 HIS A   1       1.413   0.466   8.395  0.00  0.00    +0.199 A 
ATOM     16  NE2 HIS A   1       2.314  -0.502   8.366  0.00  0.00    -0.221 NA
ATOM     17  CD2 HIS A   1       1.685  -1.703   8.583  0.00  0.00    +0.115 A 
ENDBRANCH  12  13
ENDBRANCH   1  12
TORSDOF 6
REMARK  Name = ../refined-set-2016/1if8/1if8_pocket.pdb
REMARK  166 active torsions:
REMARK  status: ('A' for Active; 'I' for Inactive)
REMARK    1  A    between atoms: _1  and  _3
REMARK    2  A    between atoms: _3  and  _4
REMARK    3  A    between atoms: _3  and  _6
REMARK    4  A    between atoms: _6  and  _7
REMARK    5  A    between atoms: _12  and  _14
REMARK    6  A    between atoms: _14  and  _15
REMARK    7  A    between atoms: _14  and  _17
REMARK    8  A    between atoms: _17  and  _18
REMARK    9  A    between atoms: _28  and  _30
REMARK   10  A    between atoms: _30  and  _31
REMARK   11  A    between atoms: _30  and  _33
REMARK   12  A    between atoms: _33  and  _34
REMARK   13  A    between atoms: _39  and  _40
REMARK   14  A    between atoms: _42  and  _44
REMARK   15  A    between atoms: _44  and  _45
REMARK   16  A    between atoms: _44  and  _47
REMARK   17  A    between atoms: _47  and  _48
REMARK   18  A    between atoms: _54  and  _56
REMARK   19  A    between atoms: _56  and  _57
REMARK   20  A    between atoms: _56  and  _59
REMARK   21  A    between atoms: _59  and  _60
REMARK   22  A    between atoms: _63  and  _64
REMARK   23  A    between atoms: _69  and  _71
REMARK   24  A    between atoms: _71  and  _72
REMARK   25  A    between atoms: _71  and  _74
REMARK   26  A    between atoms: _74  and  _75
REMARK   27  A    between atoms: _80  and  _82
REMARK   28  A    between atoms: _82  and  _83
REMARK   29  A    between atoms: _82  and  _85
REMARK   30  A    between atoms: _85  and  _86
REMARK   31  A    between atoms: _91  and  _93
REMARK   32  A    between atoms: _93  and  _94
REMARK   33  A    between atoms: _97  and  _99
REMARK   34  A    between atoms: _99  and  _100
REMARK   35  A    between atoms: _99  and  _102
REMARK   36  A    between atoms: _102  and  _103
REMARK   37  A    between atoms: _108  and  _110
REMARK   38  A    between atoms: _110  and  _111
REMARK   39  A    between atoms: _110  and  _113
REMARK   40  A    between atoms: _113  and  _114
REMARK   41  A    between atoms: _117  and  _119
REMARK   42  A    between atoms: _119  and  _120
REMARK   43  A    between atoms: _119  and  _122
REMARK   44  A    between atoms: _122  and  _123
REMARK   45  A    between atoms: _123  and  _124
REMARK   46  A    between atoms: _129  and  _131
REMARK   47  A    between atoms: _131  and  _132
REMARK   48  A    between atoms: _131  and  _134
REMARK   49  A    between atoms: _134  and  _135
REMARK   50  A    between atoms: _141  and  _143
REMARK   51  A    between atoms: _154  and  _157
REMARK   52  A    between atoms: _157  and  _158
REMARK   53  A    between atoms: _166  and  _167
REMARK   54  A    between atoms: _175  and  _177
REMARK   55  A    between atoms: _177  and  _178
REMARK   56  A    between atoms: _177  and  _180
REMARK   57  A    between atoms: _180  and  _181
REMARK   58  A    between atoms: _181  and  _182
REMARK   59  A    between atoms: _185  and  _187
REMARK   60  A    between atoms: _187  and  _188
REMARK   61  A    between atoms: _187  and  _190
REMARK   62  A    between atoms: _190  and  _191
REMARK   63  A    between atoms: _196  and  _198
REMARK   64  A    between atoms: _198  and  _199
REMARK   65  A    between atoms: _198  and  _201
REMARK   66  A    between atoms: _201  and  _202
REMARK   67  A    between atoms: _202  and  _203
REMARK   68  A    between atoms: _206  and  _208
REMARK   69  A    between atoms: _208  and  _209
REMARK   70  A    between atoms: _208  and  _211
REMARK   71  A    between atoms: _211  and  _212
REMARK   72  A    between atoms: _215  and  _217
REMARK   73  A    between atoms: _217  and  _218
REMARK   74  A    between atoms: _217  and  _220
REMARK   75  A    between atoms: _220  and  _221
REMARK   76  A    between atoms: _222  and  ZN_460
REMARK   77  A    between atoms: _226  and  _228
REMARK   78  A    between atoms: _228  and  _229
REMARK   79  A    between atoms: _228  and  _231
REMARK   80  A    between atoms: _231  and  _232
REMARK   81  A    between atoms: _235  and  _237
REMARK   82  A    between atoms: _237  and  _238
REMARK   83  A    between atoms: _237  and  _240
REMARK   84  A    between atoms: _243  and  _245
REMARK   85  A    between atoms: _245  and  _246
REMARK   86  A    between atoms: _245  and  _248
REMARK   87  A    between atoms: _248  and  _249
REMARK   88  A    between atoms: _254  and  _256
REMARK   89  A    between atoms: _256  and  _257
REMARK   90  A    between atoms: _256  and  _259
REMARK   91  A    between atoms: _259  and  _260
REMARK   92  A    between atoms: _266  and  _268
REMARK   93  A    between atoms: _268  and  _269
REMARK   94  A    between atoms: _271  and  _273
REMARK   95  A    between atoms: _273  and  _274
REMARK   96  A    between atoms: _273  and  _276
REMARK   97  A    between atoms: _276  and  _277
REMARK   98  A    between atoms: _277  and  _278
REMARK   99  A    between atoms: _278  and  _279
REMARK  100  A    between atoms: _279  and  _280
REMARK  101  A    between atoms: _284  and  _286
REMARK  102  A    between atoms: _286  and  _287
REMARK  103  A    between atoms: _286  and  _289
REMARK  104  A    between atoms: _292  and  _294
REMARK  105  A    between atoms: _294  and  _295
REMARK  106  A    between atoms: _294  and  _297
REMARK  107  A    between atoms: _297  and  _298
REMARK  108  A    between atoms: _298  and  _299
REMARK  109  A    between atoms: _304  and  _306
REMARK  110  A    between atoms: _306  and  _307
REMARK  111  A    between atoms: _306  and  _309
REMARK  112  A    between atoms: _309  and  _310
REMARK  113  A    between atoms: _313  and  _315
REMARK  114  A    between atoms: _315  and  _316
REMARK  115  A    between atoms: _319  and  _321
REMARK  116  A    between atoms: _321  and  _322
REMARK  117  A    between atoms: _321  and  _324
REMARK  118  A    between atoms: _327  and  _329
REMARK  119  A    between atoms: _329  and  _330
REMARK  120  A    between atoms: _329  and  _332
REMARK  121  A    between atoms: _332  and  _333
REMARK  122  A    between atoms: _336  and  _338
REMARK  123  A    between atoms: _338  and  _339
REMARK  124  A    between atoms: _341  and  _343
REMARK  125  A    between atoms: _343  and  _344
REMARK  126  A    between atoms: _343  and  _346
REMARK  127  A    between atoms: _346  and  _347
REMARK  128  A    between atoms: _349  and  _351
REMARK  129  A    between atoms: _351  and  _352
REMARK  130  A    between atoms: _351  and  _354
REMARK  131  A    between atoms: _354  and  _355
REMARK  132  A    between atoms: _358  and  _360
REMARK  133  A    between atoms: _360  and  _361
REMARK  134  A    between atoms: _360  and  _363
REMARK  135  A    between atoms: _363  and  _364
REMARK  136  A    between atoms: _367  and  _369
REMARK  137  A    between atoms: _369  and  _370
REMARK  138  A    between atoms: _369  and  _372
REMARK  139  A    between atoms: _372  and  _373
REMARK  140  A    between atoms: _377  and  _378
REMARK  141  A    between atoms: _384  and  _385
REMARK  142  A    between atoms: _390  and  _392
REMARK  143  A    between atoms: _392  and  _393
REMARK  144  A    between atoms: _392  and  _395
REMARK  145  A    between atoms: _395  and  _396
REMARK  146  A    between atoms: _399  and  _401
REMARK  147  A    between atoms: _401  and  _402
REMARK  148  A    between atoms: _401  and  _404
REMARK  149  A    between atoms: _404  and  _405
REMARK  150  A    between atoms: _408  and  _410
REMARK  151  A    between atoms: _410  and  _411
REMARK  152  A    between atoms: _410  and  _413
REMARK  153  A    between atoms: _416  and  _418
REMARK  154  A    between atoms: _418  and  _419
REMARK  155  A    between atoms: _418  and  _421
REMARK  156  A    between atoms: _421  and  _422
REMARK  157  A    between atoms: _432  and  _434
REMARK  158  A    between atoms: _434  and  _435
REMARK  159  A    between atoms: _434  and  _437
REMARK  160  A    between atoms: _437  and  _438
REMARK  161  A    between atoms: _443  and  _445
REMARK  162  A    between atoms: _445  and  _446
REMARK  163  A    between atoms: _445  and  _448
REMARK  164  A    between atoms: _448  and  _449
REMARK  165  A    between atoms: _449  and  _450
REMARK  166  A    between atoms: _450  and  _451
REMARK                            x       y       z     vdW  Elec       q    Type
REMARK                         _______ _______ _______ _____ _____    ______ ____
ROOT
ATOM      1  CB  ASN A   1      -8.657   2.001   7.184  0.00  0.00    +0.110 C 
ENDROOT
BRANCH   1   2
ATOM      2  CG  ASN A   1      -7.485   1.670   8.113  0.00  0.00    +0.221 C 
ATOM      3  ND2 ASN A   1      -7.337   0.420   8.515  0.00  0.00    -0.329 N 
ATOM      4 HD21 ASN A   1      -6.545   0.165   9.138  0.00  0.00    +0.145 HD
ATOM      5 HD22 ASN A   1      -8.013  -0.308   8.208  0.00  0.00    +0.145 HD
ATOM      6  OD1 ASN A   1      -6.715   2.561   8.448  0.00  0.00    -0.275 OA
ENDBRANCH   1   2
BRANCH   1   7
ATOM      7  CA  ASN A   1      -9.478   0.774   6.751  0.00  0.00    +0.142 C 
BRANCH   7   8
ATOM      8  N   ASN A   1      -8.653  -0.164   6.003  0.00  0.00    -0.239 NA
ATOM      9  H   ASN A   1      -8.149   0.184   5.163  0.00  0.00    +0.142 HD
ENDBRANCH   7   8
BRANCH   7  10
ATOM     10  C   ASN A   1     -10.613   1.347   5.906  0.00  0.00    +0.225 C 
ATOM     11  O   ASN A   1     -10.393   1.700   4.754  0.00  0.00    -0.287 OA
ENDBRANCH   7  10
ENDBRANCH   1   7
TORSDOF 4
REMARK  Name = ../refined-set-2016/1if8/1if8_pocket.pdb
REMARK  166 active torsions:
REMARK  status: ('A' for Active; 'I' for Inactive)
REMARK    1  A    between atoms: _1  and  _3
REMARK    2  A    between atoms: _3  and  _4
REMARK    3  A    between atoms: _3  and  _6
REMARK    4  A    between atoms: _6  and  _7
REMARK    5  A    between atoms: _12  and  _14
REMARK    6  A    between atoms: _14  and  _15
REMARK    7  A    between atoms: _14  and  _17
REMARK    8  A    between atoms: _17  and  _18
REMARK    9  A    between atoms: _28  and  _30
REMARK   10  A    between atoms: _30  and  _31
REMARK   11  A    between atoms: _30  and  _33
REMARK   12  A    between atoms: _33  and  _34
REMARK   13  A    between atoms: _39  and  _40
REMARK   14  A    between atoms: _42  and  _44
REMARK   15  A    between atoms: _44  and  _45
REMARK   16  A    between atoms: _44  and  _47
REMARK   17  A    between atoms: _47  and  _48
REMARK   18  A    between atoms: _54  and  _56
REMARK   19  A    between atoms: _56  and  _57
REMARK   20  A    between atoms: _56  and  _59
REMARK   21  A    between atoms: _59  and  _60
REMARK   22  A    between atoms: _63  and  _64
REMARK   23  A    between atoms: _69  and  _71
REMARK   24  A    between atoms: _71  and  _72
REMARK   25  A    between atoms: _71  and  _74
REMARK   26  A    between atoms: _74  and  _75
REMARK   27  A    between atoms: _80  and  _82
REMARK   28  A    between atoms: _82  and  _83
REMARK   29  A    between atoms: _82  and  _85
REMARK   30  A    between atoms: _85  and  _86
REMARK   31  A    between atoms: _91  and  _93
REMARK   32  A    between atoms: _93  and  _94
REMARK   33  A    between atoms: _97  and  _99
REMARK   34  A    between atoms: _99  and  _100
REMARK   35  A    between atoms: _99  and  _102
REMARK   36  A    between atoms: _102  and  _103
REMARK   37  A    between atoms: _108  and  _110
REMARK   38  A    between atoms: _110  and  _111
REMARK   39  A    between atoms: _110  and  _113
REMARK   40  A    between atoms: _113  and  _114
REMARK   41  A    between atoms: _117  and  _119
REMARK   42  A    between atoms: _119  and  _120
REMARK   43  A    between atoms: _119  and  _122
REMARK   44  A    between atoms: _122  and  _123
REMARK   45  A    between atoms: _123  and  _124
REMARK   46  A    between atoms: _129  and  _131
REMARK   47  A    between atoms: _131  and  _132
REMARK   48  A    between atoms: _131  and  _134
REMARK   49  A    between atoms: _134  and  _135
REMARK   50  A    between atoms: _141  and  _143
REMARK   51  A    between atoms: _154  and  _157
REMARK   52  A    between atoms: _157  and  _158
REMARK   53  A    between atoms: _166  and  _167
REMARK   54  A    between atoms: _175  and  _177
REMARK   55  A    between atoms: _177  and  _178
REMARK   56  A    between atoms: _177  and  _180
REMARK   57  A    between atoms: _180  and  _181
REMARK   58  A    between atoms: _181  and  _182
REMARK   59  A    between atoms: _185  and  _187
REMARK   60  A    between atoms: _187  and  _188
REMARK   61  A    between atoms: _187  and  _190
REMARK   62  A    between atoms: _190  and  _191
REMARK   63  A    between atoms: _196  and  _198
REMARK   64  A    between atoms: _198  and  _199
REMARK   65  A    between atoms: _198  and  _201
REMARK   66  A    between atoms: _201  and  _202
REMARK   67  A    between atoms: _202  and  _203
REMARK   68  A    between atoms: _206  and  _208
REMARK   69  A    between atoms: _208  and  _209
REMARK   70  A    between atoms: _208  and  _211
REMARK   71  A    between atoms: _211  and  _212
REMARK   72  A    between atoms: _215  and  _217
REMARK   73  A    between atoms: _217  and  _218
REMARK   74  A    between atoms: _217  and  _220
REMARK   75  A    between atoms: _220  and  _221
REMARK   76  A    between atoms: _222  and  ZN_460
REMARK   77  A    between atoms: _226  and  _228
REMARK   78  A    between atoms: _228  and  _229
REMARK   79  A    between atoms: _228  and  _231
REMARK   80  A    between atoms: _231  and  _232
REMARK   81  A    between atoms: _235  and  _237
REMARK   82  A    between atoms: _237  and  _238
REMARK   83  A    between atoms: _237  and  _240
REMARK   84  A    between atoms: _243  and  _245
REMARK   85  A    between atoms: _245  and  _246
REMARK   86  A    between atoms: _245  and  _248
REMARK   87  A    between atoms: _248  and  _249
REMARK   88  A    between atoms: _254  and  _256
REMARK   89  A    between atoms: _256  and  _257
REMARK   90  A    between atoms: _256  and  _259
REMARK   91  A    between atoms: _259  and  _260
REMARK   92  A    between atoms: _266  and  _268
REMARK   93  A    between atoms: _268  and  _269
REMARK   94  A    between atoms: _271  and  _273
REMARK   95  A    between atoms: _273  and  _274
REMARK   96  A    between atoms: _273  and  _276
REMARK   97  A    between atoms: _276  and  _277
REMARK   98  A    between atoms: _277  and  _278
REMARK   99  A    between atoms: _278  and  _279
REMARK  100  A    between atoms: _279  and  _280
REMARK  101  A    between atoms: _284  and  _286
REMARK  102  A    between atoms: _286  and  _287
REMARK  103  A    between atoms: _286  and  _289
REMARK  104  A    between atoms: _292  and  _294
REMARK  105  A    between atoms: _294  and  _295
REMARK  106  A    between atoms: _294  and  _297
REMARK  107  A    between atoms: _297  and  _298
REMARK  108  A    between atoms: _298  and  _299
REMARK  109  A    between atoms: _304  and  _306
REMARK  110  A    between atoms: _306  and  _307
REMARK  111  A    between atoms: _306  and  _309
REMARK  112  A    between atoms: _309  and  _310
REMARK  113  A    between atoms: _313  and  _315
REMARK  114  A    between atoms: _315  and  _316
REMARK  115  A    between atoms: _319  and  _321
REMARK  116  A    between atoms: _321  and  _322
REMARK  117  A    between atoms: _321  and  _324
REMARK  118  A    between atoms: _327  and  _329
REMARK  119  A    between atoms: _329  and  _330
REMARK  120  A    between atoms: _329  and  _332
REMARK  121  A    between atoms: _332  and  _333
REMARK  122  A    between atoms: _336  and  _338
REMARK  123  A    between atoms: _338  and  _339
REMARK  124  A    between atoms: _341  and  _343
REMARK  125  A    between atoms: _343  and  _344
REMARK  126  A    between atoms: _343  and  _346
REMARK  127  A    between atoms: _346  and  _347
REMARK  128  A    between atoms: _349  and  _351
REMARK  129  A    between atoms: _351  and  _352
REMARK  130  A    between atoms: _351  and  _354
REMARK  131  A    between atoms: _354  and  _355
REMARK  132  A    between atoms: _358  and  _360
REMARK  133  A    between atoms: _360  and  _361
REMARK  134  A    between atoms: _360  and  _363
REMARK  135  A    between atoms: _363  and  _364
REMARK  136  A    between atoms: _367  and  _369
REMARK  137  A    between atoms: _369  and  _370
REMARK  138  A    between atoms: _369  and  _372
REMARK  139  A    between atoms: _372  and  _373
REMARK  140  A    between atoms: _377  and  _378
REMARK  141  A    between atoms: _384  and  _385
REMARK  142  A    between atoms: _390  and  _392
REMARK  143  A    between atoms: _392  and  _393
REMARK  144  A    between atoms: _392  and  _395
REMARK  145  A    between atoms: _395  and  _396
REMARK  146  A    between atoms: _399  and  _401
REMARK  147  A    between atoms: _401  and  _402
REMARK  148  A    between atoms: _401  and  _404
REMARK  149  A    between atoms: _404  and  _405
REMARK  150  A    between atoms: _408  and  _410
REMARK  151  A    between atoms: _410  and  _411
REMARK  152  A    between atoms: _410  and  _413
REMARK  153  A    between atoms: _416  and  _418
REMARK  154  A    between atoms: _418  and  _419
REMARK  155  A    between atoms: _418  and  _421
REMARK  156  A    between atoms: _421  and  _422
REMARK  157  A    between atoms: _432  and  _434
REMARK  158  A    between atoms: _434  and  _435
REMARK  159  A    between atoms: _434  and  _437
REMARK  160  A    between atoms: _437  and  _438
REMARK  161  A    between atoms: _443  and  _445
REMARK  162  A    between atoms: _445  and  _446
REMARK  163  A    between atoms: _445  and  _448
REMARK  164  A    between atoms: _448  and  _449
REMARK  165  A    between atoms: _449  and  _450
REMARK  166  A    between atoms: _450  and  _451
REMARK                            x       y       z     vdW  Elec       q    Type
REMARK                         _______ _______ _______ _____ _____    ______ ____
ROOT
ATOM      1  C   UNK A   4     -10.457  -1.936  10.676  0.00  0.00    +0.000 C 
ATOM      2  C   UNK A   4     -10.503  -3.268  11.436  0.00  0.00    +0.000 C 
ATOM      3  O   UNK A   4     -11.079  -3.359  12.524  0.00  0.00    +0.000 OA
ATOM      4  N   VAL A   5      -9.874  -4.291  10.866  0.00  0.00    +0.000 N 
ATOM      5  CA  VAL A   5      -9.838  -5.617  11.477  0.00  0.00    +0.000 C 
ATOM      6  C   VAL A   5      -8.403  -6.099  11.716  0.00  0.00    +0.000 C 
ATOM      7  N   UNK A   6      -8.288  -7.115  12.564  0.00  0.00    +0.000 N 
ATOM      8  H   UNK A   6      -9.156  -7.455  13.025  0.00  0.00    +0.000 HD
ATOM      9  C   UNK A   6      -7.037  -7.793  12.901  0.00  0.00    +0.000 C 
ATOM     10  C   UNK A   6      -6.608  -7.504  14.363  0.00  0.00    +0.000 C 
ATOM     11  C   UNK A   6      -6.289  -6.060  14.636  0.00  0.00    +0.000 A 
ATOM     12  C   UNK A   6      -7.095  -5.044  15.039  0.00  0.00    +0.000 A 
ATOM     13  N   UNK A   6      -6.362  -3.850  15.145  0.00  0.00    +0.000 N 
ATOM     14 ZN   UNK A   6      -7.016  -2.146  15.473  0.00  0.00    +0.000 Zn
ATOM     15  N   UNK A   4      -7.597  -1.126  14.141  0.00  0.00    +0.000 N 
ATOM     16  C   UNK A   4      -7.968   0.110  13.851  0.00  0.00    +0.000 A 
ATOM     17  N   UNK A   4      -8.496   0.183  12.616  0.00  0.00    +0.000 NA
ATOM     18  C   UNK A   4      -8.480  -1.079  12.060  0.00  0.00    +0.000 A 
ATOM     19  C   UNK A   4      -7.922  -1.886  13.001  0.00  0.00    +0.000 A 
ATOM     20  C   UNK A   6      -5.134  -4.192  14.799  0.00  0.00    +0.000 A 
ATOM     21  N   UNK A   6      -5.042  -5.496  14.492  0.00  0.00    +0.000 NA
ATOM     22  O   VAL A   5      -7.442  -5.558  11.159  0.00  0.00    +0.000 OA
ATOM     23  H   VAL A   5      -9.392  -4.142   9.956  0.00  0.00    +0.000 HD
ATOM     24  C   UNK A   4      -9.005  -1.405  10.688  0.00  0.00    +0.000 C 
ENDROOT
BRANCH  14  25
ATOM     25  N   UNK A   6      -8.371  -2.757  16.724  0.00  0.00    +0.000 N 
ATOM     26  C   UNK A   6      -8.065  -3.670  17.625  0.00  0.00    +0.000 A 
ATOM     27  N   UNK A   6      -9.157  -4.144  18.242  0.00  0.00    +0.000 NA
ATOM     28  C   UNK A   6     -10.229  -3.498  17.713  0.00  0.00    +0.000 A 
ATOM     29  C   UNK A   6      -9.743  -2.643  16.779  0.00  0.00    +0.000 A 
BRANCH  29  30
ATOM     30  C   UNK A   6     -10.486  -1.665  15.923  0.00  0.00    +0.000 C 
BRANCH  30  31
ATOM     31  C   UNK A   6     -11.988  -1.929  15.833  0.00  0.00    +0.000 C 
BRANCH  31  32
ATOM     32  C   UNK A   6     -12.644  -0.711  15.191  0.00  0.00    +0.000 C 
ATOM     33  N   UNK A   4     -13.639  -0.140  15.878  0.00  0.00    +0.000 N 
ATOM     34  H   UNK A   4     -13.935  -0.580  16.772  0.00  0.00    +0.000 HD
ATOM     35  O   UNK A   6     -12.277  -0.337  14.072  0.00  0.00    +0.000 OA
BRANCH  33  36
ATOM     36  C   UNK A   4     -14.339   1.080  15.436  0.00  0.00    +0.000 C 
BRANCH  36  37
ATOM     37  C   UNK A   4     -13.723   2.221  16.249  0.00  0.00    +0.000 C 
ATOM     38  O   UNK A   4     -13.938   2.326  17.460  0.00  0.00    +0.000 OA
ATOM     39  N   VAL A   5     -12.928   3.045  15.573  0.00  0.00    +0.000 N 
ATOM     40  H   VAL A   5     -12.839   2.905  14.546  0.00  0.00    +0.000 HD
BRANCH  39  41
ATOM     41  CA  VAL A   5     -12.172   4.134  16.185  0.00  0.00    +0.000 C 
BRANCH  41  42
ATOM     42  C   VAL A   5     -12.880   5.489  16.232  0.00  0.00    +0.000 C 
ATOM     43  N   UNK A   6     -12.959   6.080  17.432  0.00  0.00    +0.000 N 
ATOM     44  H   UNK A   6     -12.545   5.590  18.251  0.00  0.00    +0.000 HD
ATOM     45  O   VAL A   5     -13.321   5.990  15.198  0.00  0.00    +0.000 OA
BRANCH  43  46
ATOM     46  C   UNK A   6     -13.602   7.387  17.652  0.00  0.00    +0.000 C 
BRANCH  46  47
ATOM     47  C   UNK A   6     -12.665   8.338  18.366  0.00  0.00    +0.000 C 
ATOM     48  O   UNK A   6     -11.821   7.904  19.124  0.00  0.00    +0.000 OA
ENDBRANCH  46  47
BRANCH  46  49
ATOM     49  C   UNK A   6     -14.841   7.263  18.541  0.00  0.00    +0.000 C 
BRANCH  49  50
ATOM     50  C   UNK A   6     -15.836   6.251  18.074  0.00  0.00    +0.000 A 
ATOM     51  N   UNK A   6     -15.585   4.896  18.097  0.00  0.00    +0.000 NA
ATOM     52  C   UNK A   6     -16.638   4.251  17.624  0.00  0.00    +0.000 A 
ATOM     53  N   UNK A   6     -17.561   5.140  17.300  0.00  0.00    +0.000 NA
ATOM     54  C   UNK A   6     -17.087   6.396  17.574  0.00  0.00    +0.000 A 
ENDBRANCH  49  50
ENDBRANCH  46  49
ENDBRANCH  43  46
ENDBRANCH  41  42
BRANCH  41  55
ATOM     55  CB  VAL A   5     -10.781   4.280  15.465  0.00  0.00    +0.000 C 
ATOM     56  CG2 VAL A   5      -9.844   5.191  16.242  0.00  0.00    +0.000 C 
ATOM     57  CG1 VAL A   5     -10.143   2.922  15.271  0.00  0.00    +0.000 C 
ENDBRANCH  41  55
ENDBRANCH  39  41
ENDBRANCH  36  37
BRANCH  36  58
ATOM     58  C   UNK A   4     -15.845   0.975  15.675  0.00  0.00    +0.000 C 
BRANCH  58  59
ATOM     59  C   UNK A   4     -16.527  -0.140  14.868  0.00  0.00    +0.000 C 
ATOM     60  C   UNK A   4     -17.313  -1.058  15.773  0.00  0.00    +0.000 C 
ATOM     61  C   UNK A   4     -17.431   0.462  13.815  0.00  0.00    +0.000 C 
ENDBRANCH  58  59
ENDBRANCH  36  58
ENDBRANCH  33  36
ENDBRANCH  31  32
BRANCH  31  62
ATOM     62  N   UNK A   6     -12.246  -3.163  15.095  0.00  0.00    +0.000 N 
ATOM     63  C   LEU A   2     -12.893  -4.192  15.624  0.00  0.00    +0.000 C 
ATOM     64  O   LEU A   2     -13.342  -4.189  16.768  0.00  0.00    +0.000 OA
ATOM     65  H   UNK A   6     -11.908  -3.237  14.114  0.00  0.00    +0.000 HD
BRANCH  63  66
ATOM     66  CA  LEU A   2     -13.116  -5.389  14.713  0.00  0.00    +0.000 C 
BRANCH  66  67
ATOM     67  N   LEU A   2     -12.718  -6.629  15.358  0.00  0.00    +0.000 N 
ATOM     68  H   LEU A   2     -13.386  -7.075  16.018  0.00  0.00    +0.000 HD
ATOM     69  C   GLU A   1     -11.554  -7.223  15.153  0.00  0.00    +0.000 C 
ATOM     70  O   GLU A   1     -10.704  -6.797  14.368  0.00  0.00    +0.000 OA
BRANCH  69  71
ATOM     71  CA  GLU A   1     -11.331  -8.517  15.935  0.00  0.00    +0.000 C 
BRANCH  71  72
ATOM     72  N   GLU A   1     -10.812  -9.577  15.081  0.00  0.00    +0.000 NA
ATOM     73  H   GLU A   1     -10.153  -9.331  14.315  0.00  0.00    +0.000 HD
ENDBRANCH  71  72
BRANCH  71  74
ATOM     74  CB  GLU A   1     -10.376  -8.278  17.120  0.00  0.00    +0.000 C 
BRANCH  74  75
ATOM     75  CG  GLU A   1     -10.956  -7.453  18.282  0.00  0.00    +0.000 C 
BRANCH  75  76
ATOM     76  CD  GLU A   1     -10.024  -7.379  19.497  0.00  0.00    +0.000 C 
ATOM     77  OE2 GLU A   1      -9.835  -6.265  20.027  0.00  0.00    +0.000 OA
ATOM     78  OE1 GLU A   1      -9.499  -8.434  19.926  0.00  0.00    +0.000 OA
ENDBRANCH  75  76
ENDBRANCH  74  75
ENDBRANCH  71  74
ENDBRANCH  69  71
ENDBRANCH  66  67
BRANCH  66  79
ATOM     79  CB  LEU A   2     -14.597  -5.465  14.351  0.00  0.00    +0.000 C 
BRANCH  79  80
ATOM     80  CG  LEU A   2     -15.371  -4.227  13.912  0.00  0.00    +0.000 C 
ATOM     81  CD2 LEU A   2     -16.758  -4.668  13.544  0.00  0.00    +0.000 C 
ATOM     82  CD1 LEU A   2     -14.723  -3.549  12.738  0.00  0.00    +0.000 C 
ENDBRANCH  79  80
ENDBRANCH  66  79
ENDBRANCH  63  66
ENDBRANCH  31  62
ENDBRANCH  30  31
ENDBRANCH  29  30
ENDBRANCH  14  25
BRANCH   1  84
ATOM     83  C   UNK A   3     -11.963   0.054  10.589  0.00  0.00    +0.000 C 
ATOM     84  N   UNK A   4     -11.387  -0.951  11.262  0.00  0.00    +0.000 N 
ATOM     85  H   UNK A   4     -11.612  -1.044  12.273  0.00  0.00    +0.000 HD
ATOM     86  O   UNK A   3     -11.722   0.314   9.407  0.00  0.00    +0.000 OA
BRANCH  83  87
ATOM     87  C   UNK A   3     -12.880   0.978  11.403  0.00  0.00    +0.000 C 
BRANCH  87  90
ATOM     88  C   LEU A   2     -12.703   3.418  11.519  0.00  0.00    +0.000 C 
ATOM     89  O   LEU A   2     -12.828   3.428  12.732  0.00  0.00    +0.000 OA
ATOM     90  N   UNK A   3     -12.844   2.313  10.789  0.00  0.00    +0.000 N 
ATOM     91  H   UNK A   3     -12.931   2.397   9.756  0.00  0.00    +0.000 HD
BRANCH  88  92
ATOM     92  CA  LEU A   2     -12.545   4.729  10.764  0.00  0.00    +0.000 C 
BRANCH  92  94
ATOM     93  C   GLU A   1     -13.006   7.124  11.065  0.00  0.00    +0.000 C 
ATOM     94  N   LEU A   2     -12.857   5.905  11.591  0.00  0.00    +0.000 N 
ATOM     95  H   LEU A   2     -12.965   5.784  12.618  0.00  0.00    +0.000 HD
ATOM     96  O   GLU A   1     -12.907   7.339   9.850  0.00  0.00    +0.000 OA
BRANCH  93  97
ATOM     97  CA  GLU A   1     -13.362   8.273  12.026  0.00  0.00    +0.000 C 
BRANCH  97  98
ATOM     98  CB  GLU A   1     -12.120   9.029  12.582  0.00  0.00    +0.000 C 
ATOM     99  CG2 GLU A   1     -11.282   8.150  13.524  0.00  0.00    +0.000 C 
BRANCH  98 100
ATOM    100  CG1 GLU A   1     -11.285   9.586  11.440  0.00  0.00    +0.000 C 
ATOM    101  CD1 GLU A   1     -10.126  10.411  11.916  0.00  0.00    +0.000 C 
ENDBRANCH  98 100
ENDBRANCH  97  98
BRANCH  97 102
ATOM    102  N   GLU A   1     -14.230   7.839  13.106  0.00  0.00    +0.000 NA
ATOM    103  H   GLU A   1     -13.880   7.141  13.793  0.00  0.00    +0.000 HD
ENDBRANCH  97 102
ENDBRANCH  93  97
ENDBRANCH  92  94
BRANCH  92 104
ATOM    104  CB  LEU A   2     -11.114   4.807  10.177  0.00  0.00    +0.000 C 
BRANCH 104 105
ATOM    105  CG  LEU A   2      -9.946   4.862  11.196  0.00  0.00    +0.000 C 
BRANCH 105 106
ATOM    106  CD  LEU A   2      -9.176   3.540  11.368  0.00  0.00    +0.000 C 
ATOM    107  NE2 LEU A   2      -7.868   3.647  11.540  0.00  0.00    +0.000 N 
ATOM    108 HE21 LEU A   2      -7.289   2.793  11.672  0.00  0.00    +0.000 HD
ATOM    109 HE22 LEU A   2      -7.419   4.585  11.543  0.00  0.00    +0.000 HD
ATOM    110  OE1 LEU A   2      -9.748   2.450  11.358  0.00  0.00    +0.000 OA
ENDBRANCH 105 106
ENDBRANCH 104 105
ENDBRANCH  92 104
ENDBRANCH  88  92
ENDBRANCH  87  90
BRANCH  87 111
ATOM    111  C   UNK A   3     -14.296   0.402  11.631  0.00  0.00    +0.000 C 
BRANCH 111 112
ATOM    112  C   UNK A   3     -15.061   0.034  10.374  0.00  0.00    +0.000 A 
ATOM    113  C   UNK A   3     -16.142   0.820   9.950  0.00  0.00    +0.000 A 
ATOM    114  C   UNK A   3     -16.919   0.442   8.872  0.00  0.00    +0.000 A 
ATOM    115  C   UNK A   3     -16.620  -0.748   8.183  0.00  0.00    +0.000 A 
ATOM    116  C   UNK A   3     -15.544  -1.538   8.586  0.00  0.00    +0.000 A 
ATOM    117  C   UNK A   3     -14.770  -1.144   9.678  0.00  0.00    +0.000 A 
ENDBRANCH 111 112
ENDBRANCH  87 111
ENDBRANCH  83  87
ENDBRANCH   1  84
BRANCH   9 118
ATOM    118  C   UNK A   6      -7.466  -9.271  12.723  0.00  0.00    +0.000 C 
ATOM    119  O   UNK A   6      -8.550  -9.661  13.175  0.00  0.00    +0.000 OA
ENDBRANCH   9 118
BRANCH   5 120
ATOM    120  CB  VAL A   5     -10.545  -6.658  10.582  0.00  0.00    +0.000 C 
BRANCH 120 121
ATOM    121  CG  VAL A   5     -12.006  -6.358  10.273  0.00  0.00    +0.000 A 
ATOM    122  CD2 VAL A   5     -13.024  -7.078  10.898  0.00  0.00    +0.000 A 
ATOM    123  CE2 VAL A   5     -14.359  -6.864  10.564  0.00  0.00    +0.000 A 
ATOM    124  CZ  VAL A   5     -14.697  -5.917   9.593  0.00  0.00    +0.000 A 
ATOM    125  CE1 VAL A   5     -13.697  -5.189   8.967  0.00  0.00    +0.000 A 
ATOM    126  CD1 VAL A   5     -12.360  -5.410   9.308  0.00  0.00    +0.000 A 
ENDBRANCH 120 121
ENDBRANCH   5 120
TORSDOF 42
REMARK  Name = ../refined-set-2016/1if8/1if8_pocket.pdb
REMARK  166 active torsions:
REMARK  status: ('A' for Active; 'I' for Inactive)
REMARK    1  A    between atoms: _1  and  _3
REMARK    2  A    between atoms: _3  and  _4
REMARK    3  A    between atoms: _3  and  _6
REMARK    4  A    between atoms: _6  and  _7
REMARK    5  A    between atoms: _12  and  _14
REMARK    6  A    between atoms: _14  and  _15
REMARK    7  A    between atoms: _14  and  _17
REMARK    8  A    between atoms: _17  and  _18
REMARK    9  A    between atoms: _28  and  _30
REMARK   10  A    between atoms: _30  and  _31
REMARK   11  A    between atoms: _30  and  _33
REMARK   12  A    between atoms: _33  and  _34
REMARK   13  A    between atoms: _39  and  _40
REMARK   14  A    between atoms: _42  and  _44
REMARK   15  A    between atoms: _44  and  _45
REMARK   16  A    between atoms: _44  and  _47
REMARK   17  A    between atoms: _47  and  _48
REMARK   18  A    between atoms: _54  and  _56
REMARK   19  A    between atoms: _56  and  _57
REMARK   20  A    between atoms: _56  and  _59
REMARK   21  A    between atoms: _59  and  _60
REMARK   22  A    between atoms: _63  and  _64
REMARK   23  A    between atoms: _69  and  _71
REMARK   24  A    between atoms: _71  and  _72
REMARK   25  A    between atoms: _71  and  _74
REMARK   26  A    between atoms: _74  and  _75
REMARK   27  A    between atoms: _80  and  _82
REMARK   28  A    between atoms: _82  and  _83
REMARK   29  A    between atoms: _82  and  _85
REMARK   30  A    between atoms: _85  and  _86
REMARK   31  A    between atoms: _91  and  _93
REMARK   32  A    between atoms: _93  and  _94
REMARK   33  A    between atoms: _97  and  _99
REMARK   34  A    between atoms: _99  and  _100
REMARK   35  A    between atoms: _99  and  _102
REMARK   36  A    between atoms: _102  and  _103
REMARK   37  A    between atoms: _108  and  _110
REMARK   38  A    between atoms: _110  and  _111
REMARK   39  A    between atoms: _110  and  _113
REMARK   40  A    between atoms: _113  and  _114
REMARK   41  A    between atoms: _117  and  _119
REMARK   42  A    between atoms: _119  and  _120
REMARK   43  A    between atoms: _119  and  _122
REMARK   44  A    between atoms: _122  and  _123
REMARK   45  A    between atoms: _123  and  _124
REMARK   46  A    between atoms: _129  and  _131
REMARK   47  A    between atoms: _131  and  _132
REMARK   48  A    between atoms: _131  and  _134
REMARK   49  A    between atoms: _134  and  _135
REMARK   50  A    between atoms: _141  and  _143
REMARK   51  A    between atoms: _154  and  _157
REMARK   52  A    between atoms: _157  and  _158
REMARK   53  A    between atoms: _166  and  _167
REMARK   54  A    between atoms: _175  and  _177
REMARK   55  A    between atoms: _177  and  _178
REMARK   56  A    between atoms: _177  and  _180
REMARK   57  A    between atoms: _180  and  _181
REMARK   58  A    between atoms: _181  and  _182
REMARK   59  A    between atoms: _185  and  _187
REMARK   60  A    between atoms: _187  and  _188
REMARK   61  A    between atoms: _187  and  _190
REMARK   62  A    between atoms: _190  and  _191
REMARK   63  A    between atoms: _196  and  _198
REMARK   64  A    between atoms: _198  and  _199
REMARK   65  A    between atoms: _198  and  _201
REMARK   66  A    between atoms: _201  and  _202
REMARK   67  A    between atoms: _202  and  _203
REMARK   68  A    between atoms: _206  and  _208
REMARK   69  A    between atoms: _208  and  _209
REMARK   70  A    between atoms: _208  and  _211
REMARK   71  A    between atoms: _211  and  _212
REMARK   72  A    between atoms: _215  and  _217
REMARK   73  A    between atoms: _217  and  _218
REMARK   74  A    between atoms: _217  and  _220
REMARK   75  A    between atoms: _220  and  _221
REMARK   76  A    between atoms: _222  and  ZN_460
REMARK   77  A    between atoms: _226  and  _228
REMARK   78  A    between atoms: _228  and  _229
REMARK   79  A    between atoms: _228  and  _231
REMARK   80  A    between atoms: _231  and  _232
REMARK   81  A    between atoms: _235  and  _237
REMARK   82  A    between atoms: _237  and  _238
REMARK   83  A    between atoms: _237  and  _240
REMARK   84  A    between atoms: _243  and  _245
REMARK   85  A    between atoms: _245  and  _246
REMARK   86  A    between atoms: _245  and  _248
REMARK   87  A    between atoms: _248  and  _249
REMARK   88  A    between atoms: _254  and  _256
REMARK   89  A    between atoms: _256  and  _257
REMARK   90  A    between atoms: _256  and  _259
REMARK   91  A    between atoms: _259  and  _260
REMARK   92  A    between atoms: _266  and  _268
REMARK   93  A    between atoms: _268  and  _269
REMARK   94  A    between atoms: _271  and  _273
REMARK   95  A    between atoms: _273  and  _274
REMARK   96  A    between atoms: _273  and  _276
REMARK   97  A    between atoms: _276  and  _277
REMARK   98  A    between atoms: _277  and  _278
REMARK   99  A    between atoms: _278  and  _279
REMARK  100  A    between atoms: _279  and  _280
REMARK  101  A    between atoms: _284  and  _286
REMARK  102  A    between atoms: _286  and  _287
REMARK  103  A    between atoms: _286  and  _289
REMARK  104  A    between atoms: _292  and  _294
REMARK  105  A    between atoms: _294  and  _295
REMARK  106  A    between atoms: _294  and  _297
REMARK  107  A    between atoms: _297  and  _298
REMARK  108  A    between atoms: _298  and  _299
REMARK  109  A    between atoms: _304  and  _306
REMARK  110  A    between atoms: _306  and  _307
REMARK  111  A    between atoms: _306  and  _309
REMARK  112  A    between atoms: _309  and  _310
REMARK  113  A    between atoms: _313  and  _315
REMARK  114  A    between atoms: _315  and  _316
REMARK  115  A    between atoms: _319  and  _321
REMARK  116  A    between atoms: _321  and  _322
REMARK  117  A    between atoms: _321  and  _324
REMARK  118  A    between atoms: _327  and  _329
REMARK  119  A    between atoms: _329  and  _330
REMARK  120  A    between atoms: _329  and  _332
REMARK  121  A    between atoms: _332  and  _333
REMARK  122  A    between atoms: _336  and  _338
REMARK  123  A    between atoms: _338  and  _339
REMARK  124  A    between atoms: _341  and  _343
REMARK  125  A    between atoms: _343  and  _344
REMARK  126  A    between atoms: _343  and  _346
REMARK  127  A    between atoms: _346  and  _347
REMARK  128  A    between atoms: _349  and  _351
REMARK  129  A    between atoms: _351  and  _352
REMARK  130  A    between atoms: _351  and  _354
REMARK  131  A    between atoms: _354  and  _355
REMARK  132  A    between atoms: _358  and  _360
REMARK  133  A    between atoms: _360  and  _361
REMARK  134  A    between atoms: _360  and  _363
REMARK  135  A    between atoms: _363  and  _364
REMARK  136  A    between atoms: _367  and  _369
REMARK  137  A    between atoms: _369  and  _370
REMARK  138  A    between atoms: _369  and  _372
REMARK  139  A    between atoms: _372  and  _373
REMARK  140  A    between atoms: _377  and  _378
REMARK  141  A    between atoms: _384  and  _385
REMARK  142  A    between atoms: _390  and  _392
REMARK  143  A    between atoms: _392  and  _393
REMARK  144  A    between atoms: _392  and  _395
REMARK  145  A    between atoms: _395  and  _396
REMARK  146  A    between atoms: _399  and  _401
REMARK  147  A    between atoms: _401  and  _402
REMARK  148  A    between atoms: _401  and  _404
REMARK  149  A    between atoms: _404  and  _405
REMARK  150  A    between atoms: _408  and  _410
REMARK  151  A    between atoms: _410  and  _411
REMARK  152  A    between atoms: _410  and  _413
REMARK  153  A    between atoms: _416  and  _418
REMARK  154  A    between atoms: _418  and  _419
REMARK  155  A    between atoms: _418  and  _421
REMARK  156  A    between atoms: _421  and  _422
REMARK  157  A    between atoms: _432  and  _434
REMARK  158  A    between atoms: _434  and  _435
REMARK  159  A    between atoms: _434  and  _437
REMARK  160  A    between atoms: _437  and  _438
REMARK  161  A    between atoms: _443  and  _445
REMARK  162  A    between atoms: _445  and  _446
REMARK  163  A    between atoms: _445  and  _448
REMARK  164  A    between atoms: _448  and  _449
REMARK  165  A    between atoms: _449  and  _450
REMARK  166  A    between atoms: _450  and  _451
REMARK                            x       y       z     vdW  Elec       q    Type
REMARK                         _______ _______ _______ _____ _____    ______ ____
ROOT
ATOM      1  C   GLU A   1      -6.088  -9.270  21.443  0.00  0.00    +0.238 C 
ATOM      2  O   GLU A   1      -5.244  -9.752  22.184  0.00  0.00    -0.274 OA
ATOM      3  N   HIS A   2      -7.284  -8.859  21.881  0.00  0.00    -0.298 N 
ATOM      4  H   HIS A   2      -7.926  -8.375  21.221  0.00  0.00    +0.150 HD
ENDROOT
BRANCH   1   5
ATOM      5  CA  GLU A   1      -5.784  -9.068  19.947  0.00  0.00    +0.145 C 
BRANCH   5   6
ATOM      6  N   GLU A   1      -6.871  -9.644  19.178  0.00  0.00    -0.238 NA
ATOM      7  H   GLU A   1      -7.717  -9.067  18.995  0.00  0.00    +0.142 HD
ENDBRANCH   5   6
BRANCH   5   8
ATOM      8  CB  GLU A   1      -5.608  -7.594  19.567  0.00  0.00    +0.038 C 
BRANCH   8   9
ATOM      9  CG  GLU A   1      -5.246  -7.398  18.093  0.00  0.00    +0.116 C 
BRANCH   9  10
ATOM     10  CD  GLU A   1      -4.646  -6.040  17.814  0.00  0.00    +0.365 C 
ATOM     11  OE2 GLU A   1      -5.315  -5.024  18.038  0.00  0.00    -0.246 OA
ATOM     12  OE1 GLU A   1      -3.481  -5.982  17.391  0.00  0.00    -0.246 OA
ENDBRANCH   9  10
ENDBRANCH   8   9
ENDBRANCH   5   8
ENDBRANCH   1   5
BRANCH   3  13
ATOM     13  CA  HIS A   2      -7.715  -9.074  23.272  0.00  0.00    +0.143 C 
BRANCH  13  14
ATOM     14  C   HIS A   2      -8.165 -10.539  23.315  0.00  0.00    +0.227 C 
ATOM     15  O   HIS A   2      -8.602 -11.086  22.299  0.00  0.00    -0.286 OA
ENDBRANCH  13  14
BRANCH  13  16
ATOM     16  CB  HIS A   2      -8.931  -8.205  23.641  0.00  0.00    +0.075 C 
BRANCH  16  17
ATOM     17  CG  HIS A   2      -8.621  -6.752  23.781  0.00  0.00    +0.082 A 
ATOM     18  CD2 HIS A   2      -8.101  -6.045  24.814  0.00  0.00    +0.115 A 
ATOM     19  NE2 HIS A   2      -7.958  -4.751  24.386  0.00  0.00    -0.221 NA
ATOM     20  CE1 HIS A   2      -8.378  -4.662  23.138  0.00  0.00    +0.199 A 
ATOM     21  ND1 HIS A   2      -8.789  -5.855  22.751  0.00  0.00    -0.227 NA
ENDBRANCH  16  17
ENDBRANCH  13  16
ENDBRANCH   3  13
TORSDOF 9
REMARK  Name = ../refined-set-2016/1if8/1if8_pocket.pdb
REMARK  166 active torsions:
REMARK  status: ('A' for Active; 'I' for Inactive)
REMARK    1  A    between atoms: _1  and  _3
REMARK    2  A    between atoms: _3  and  _4
REMARK    3  A    between atoms: _3  and  _6
REMARK    4  A    between atoms: _6  and  _7
REMARK    5  A    between atoms: _12  and  _14
REMARK    6  A    between atoms: _14  and  _15
REMARK    7  A    between atoms: _14  and  _17
REMARK    8  A    between atoms: _17  and  _18
REMARK    9  A    between atoms: _28  and  _30
REMARK   10  A    between atoms: _30  and  _31
REMARK   11  A    between atoms: _30  and  _33
REMARK   12  A    between atoms: _33  and  _34
REMARK   13  A    between atoms: _39  and  _40
REMARK   14  A    between atoms: _42  and  _44
REMARK   15  A    between atoms: _44  and  _45
REMARK   16  A    between atoms: _44  and  _47
REMARK   17  A    between atoms: _47  and  _48
REMARK   18  A    between atoms: _54  and  _56
REMARK   19  A    between atoms: _56  and  _57
REMARK   20  A    between atoms: _56  and  _59
REMARK   21  A    between atoms: _59  and  _60
REMARK   22  A    between atoms: _63  and  _64
REMARK   23  A    between atoms: _69  and  _71
REMARK   24  A    between atoms: _71  and  _72
REMARK   25  A    between atoms: _71  and  _74
REMARK   26  A    between atoms: _74  and  _75
REMARK   27  A    between atoms: _80  and  _82
REMARK   28  A    between atoms: _82  and  _83
REMARK   29  A    between atoms: _82  and  _85
REMARK   30  A    between atoms: _85  and  _86
REMARK   31  A    between atoms: _91  and  _93
REMARK   32  A    between atoms: _93  and  _94
REMARK   33  A    between atoms: _97  and  _99
REMARK   34  A    between atoms: _99  and  _100
REMARK   35  A    between atoms: _99  and  _102
REMARK   36  A    between atoms: _102  and  _103
REMARK   37  A    between atoms: _108  and  _110
REMARK   38  A    between atoms: _110  and  _111
REMARK   39  A    between atoms: _110  and  _113
REMARK   40  A    between atoms: _113  and  _114
REMARK   41  A    between atoms: _117  and  _119
REMARK   42  A    between atoms: _119  and  _120
REMARK   43  A    between atoms: _119  and  _122
REMARK   44  A    between atoms: _122  and  _123
REMARK   45  A    between atoms: _123  and  _124
REMARK   46  A    between atoms: _129  and  _131
REMARK   47  A    between atoms: _131  and  _132
REMARK   48  A    between atoms: _131  and  _134
REMARK   49  A    between atoms: _134  and  _135
REMARK   50  A    between atoms: _141  and  _143
REMARK   51  A    between atoms: _154  and  _157
REMARK   52  A    between atoms: _157  and  _158
REMARK   53  A    between atoms: _166  and  _167
REMARK   54  A    between atoms: _175  and  _177
REMARK   55  A    between atoms: _177  and  _178
REMARK   56  A    between atoms: _177  and  _180
REMARK   57  A    between atoms: _180  and  _181
REMARK   58  A    between atoms: _181  and  _182
REMARK   59  A    between atoms: _185  and  _187
REMARK   60  A    between atoms: _187  and  _188
REMARK   61  A    between atoms: _187  and  _190
REMARK   62  A    between atoms: _190  and  _191
REMARK   63  A    between atoms: _196  and  _198
REMARK   64  A    between atoms: _198  and  _199
REMARK   65  A    between atoms: _198  and  _201
REMARK   66  A    between atoms: _201  and  _202
REMARK   67  A    between atoms: _202  and  _203
REMARK   68  A    between atoms: _206  and  _208
REMARK   69  A    between atoms: _208  and  _209
REMARK   70  A    between atoms: _208  and  _211
REMARK   71  A    between atoms: _211  and  _212
REMARK   72  A    between atoms: _215  and  _217
REMARK   73  A    between atoms: _217  and  _218
REMARK   74  A    between atoms: _217  and  _220
REMARK   75  A    between atoms: _220  and  _221
REMARK   76  A    between atoms: _222  and  ZN_460
REMARK   77  A    between atoms: _226  and  _228
REMARK   78  A    between atoms: _228  and  _229
REMARK   79  A    between atoms: _228  and  _231
REMARK   80  A    between atoms: _231  and  _232
REMARK   81  A    between atoms: _235  and  _237
REMARK   82  A    between atoms: _237  and  _238
REMARK   83  A    between atoms: _237  and  _240
REMARK   84  A    between atoms: _243  and  _245
REMARK   85  A    between atoms: _245  and  _246
REMARK   86  A    between atoms: _245  and  _248
REMARK   87  A    between atoms: _248  and  _249
REMARK   88  A    between atoms: _254  and  _256
REMARK   89  A    between atoms: _256  and  _257
REMARK   90  A    between atoms: _256  and  _259
REMARK   91  A    between atoms: _259  and  _260
REMARK   92  A    between atoms: _266  and  _268
REMARK   93  A    between atoms: _268  and  _269
REMARK   94  A    between atoms: _271  and  _273
REMARK   95  A    between atoms: _273  and  _274
REMARK   96  A    between atoms: _273  and  _276
REMARK   97  A    between atoms: _276  and  _277
REMARK   98  A    between atoms: _277  and  _278
REMARK   99  A    between atoms: _278  and  _279
REMARK  100  A    between atoms: _279  and  _280
REMARK  101  A    between atoms: _284  and  _286
REMARK  102  A    between atoms: _286  and  _287
REMARK  103  A    between atoms: _286  and  _289
REMARK  104  A    between atoms: _292  and  _294
REMARK  105  A    between atoms: _294  and  _295
REMARK  106  A    between atoms: _294  and  _297
REMARK  107  A    between atoms: _297  and  _298
REMARK  108  A    between atoms: _298  and  _299
REMARK  109  A    between atoms: _304  and  _306
REMARK  110  A    between atoms: _306  and  _307
REMARK  111  A    between atoms: _306  and  _309
REMARK  112  A    between atoms: _309  and  _310
REMARK  113  A    between atoms: _313  and  _315
REMARK  114  A    between atoms: _315  and  _316
REMARK  115  A    between atoms: _319  and  _321
REMARK  116  A    between atoms: _321  and  _322
REMARK  117  A    between atoms: _321  and  _324
REMARK  118  A    between atoms: _327  and  _329
REMARK  119  A    between atoms: _329  and  _330
REMARK  120  A    between atoms: _329  and  _332
REMARK  121  A    between atoms: _332  and  _333
REMARK  122  A    between atoms: _336  and  _338
REMARK  123  A    between atoms: _338  and  _339
REMARK  124  A    between atoms: _341  and  _343
REMARK  125  A    between atoms: _343  and  _344
REMARK  126  A    between atoms: _343  and  _346
REMARK  127  A    between atoms: _346  and  _347
REMARK  128  A    between atoms: _349  and  _351
REMARK  129  A    between atoms: _351  and  _352
REMARK  130  A    between atoms: _351  and  _354
REMARK  131  A    between atoms: _354  and  _355
REMARK  132  A    between atoms: _358  and  _360
REMARK  133  A    between atoms: _360  and  _361
REMARK  134  A    between atoms: _360  and  _363
REMARK  135  A    between atoms: _363  and  _364
REMARK  136  A    between atoms: _367  and  _369
REMARK  137  A    between atoms: _369  and  _370
REMARK  138  A    between atoms: _369  and  _372
REMARK  139  A    between atoms: _372  and  _373
REMARK  140  A    between atoms: _377  and  _378
REMARK  141  A    between atoms: _384  and  _385
REMARK  142  A    between atoms: _390  and  _392
REMARK  143  A    between atoms: _392  and  _393
REMARK  144  A    between atoms: _392  and  _395
REMARK  145  A    between atoms: _395  and  _396
REMARK  146  A    between atoms: _399  and  _401
REMARK  147  A    between atoms: _401  and  _402
REMARK  148  A    between atoms: _401  and  _404
REMARK  149  A    between atoms: _404  and  _405
REMARK  150  A    between atoms: _408  and  _410
REMARK  151  A    between atoms: _410  and  _411
REMARK  152  A    between atoms: _410  and  _413
REMARK  153  A    between atoms: _416  and  _418
REMARK  154  A    between atoms: _418  and  _419
REMARK  155  A    between atoms: _418  and  _421
REMARK  156  A    between atoms: _421  and  _422
REMARK  157  A    between atoms: _432  and  _434
REMARK  158  A    between atoms: _434  and  _435
REMARK  159  A    between atoms: _434  and  _437
REMARK  160  A    between atoms: _437  and  _438
REMARK  161  A    between atoms: _443  and  _445
REMARK  162  A    between atoms: _445  and  _446
REMARK  163  A    between atoms: _445  and  _448
REMARK  164  A    between atoms: _448  and  _449
REMARK  165  A    between atoms: _449  and  _450
REMARK  166  A    between atoms: _450  and  _451
REMARK                            x       y       z     vdW  Elec       q    Type
REMARK                         _______ _______ _______ _____ _____    ______ ____
ROOT
ATOM      1  CA  GLY A   2      -4.295  15.129  15.670  0.00  0.00    +0.176 C 
ENDROOT
BRANCH   1   4
ATOM      2  C   PHE A   1      -6.414  13.994  15.984  0.00  0.00    +0.239 C 
ATOM      3  O   PHE A   1      -5.999  13.374  16.977  0.00  0.00    -0.274 OA
ATOM      4  N   GLY A   2      -5.677  14.870  15.310  0.00  0.00    -0.296 N 
ATOM      5  H   GLY A   2      -6.099  15.381  14.508  0.00  0.00    +0.150 HD
BRANCH   2   6
ATOM      6  CA  PHE A   1      -7.848  13.812  15.487  0.00  0.00    +0.149 C 
BRANCH   6   7
ATOM      7  N   PHE A   1      -8.517  15.055  15.119  0.00  0.00    -0.238 NA
ATOM      8  H   PHE A   1      -8.994  15.117  14.197  0.00  0.00    +0.142 HD
ENDBRANCH   6   7
BRANCH   6   9
ATOM      9  CB  PHE A   1      -7.876  12.829  14.309  0.00  0.00    +0.053 C 
BRANCH   9  10
ATOM     10  CG  PHE A   1      -7.331  11.462  14.642  0.00  0.00    -0.020 A 
ATOM     11  CD2 PHE A   1      -8.116  10.532  15.293  0.00  0.00    -0.004 A 
ATOM     12  CE2 PHE A   1      -7.621   9.254  15.574  0.00  0.00    -0.000 A 
ATOM     13  CZ  PHE A   1      -6.331   8.914  15.203  0.00  0.00    -0.000 A 
ATOM     14  CE1 PHE A   1      -5.539   9.839  14.554  0.00  0.00    -0.000 A 
ATOM     15  CD1 PHE A   1      -6.039  11.104  14.277  0.00  0.00    -0.004 A 
ENDBRANCH   9  10
ENDBRANCH   6   9
ENDBRANCH   2   6
ENDBRANCH   1   4
BRANCH   1  16
ATOM     16  C   GLY A   2      -4.104  15.610  17.098  0.00  0.00    +0.243 C 
ATOM     17  O   GLY A   2      -3.107  15.286  17.728  0.00  0.00    -0.273 OA
ATOM     18  N   LYS A   3      -5.044  16.402  17.591  0.00  0.00    -0.298 N 
ATOM     19  H   LYS A   3      -5.851  16.660  16.988  0.00  0.00    +0.150 HD
BRANCH  18  20
ATOM     20  CA  LYS A   3      -4.986  16.923  18.948  0.00  0.00    +0.137 C 
BRANCH  20  21
ATOM     21  C   LYS A   3      -5.403  15.838  19.943  0.00  0.00    +0.227 C 
ATOM     22  O   LYS A   3      -4.778  15.691  21.001  0.00  0.00    -0.286 OA
ENDBRANCH  20  21
BRANCH  20  23
ATOM     23  CB  LYS A   3      -5.907  18.134  19.094  0.00  0.00    +0.028 C 
BRANCH  23  24
ATOM     24  CG  LYS A   3      -5.617  19.260  18.131  0.00  0.00    -0.000 C 
BRANCH  24  25
ATOM     25  CD  LYS A   3      -4.126  19.569  18.110  0.00  0.00    -0.024 C 
BRANCH  25  26
ATOM     26  CE  LYS A   3      -3.821  20.782  17.261  0.00  0.00    -0.086 C 
BRANCH  26  27
ATOM     27  NZ  LYS A   3      -4.187  20.518  15.838  0.00  0.00    +0.380 N 
ATOM     28  HZ1 LYS A   3      -5.203  20.305  15.777  0.00  0.00    -0.089 HD
ATOM     29  HZ2 LYS A   3      -3.639  19.707  15.485  0.00  0.00    -0.089 HD
ATOM     30  HZ3 LYS A   3      -3.973  21.359  15.265  0.00  0.00    -0.089 HD
ENDBRANCH  26  27
ENDBRANCH  25  26
ENDBRANCH  24  25
ENDBRANCH  23  24
ENDBRANCH  20  23
ENDBRANCH  18  20
ENDBRANCH   1  16
TORSDOF 13
REMARK  Name = ../refined-set-2016/1if8/1if8_pocket.pdb
REMARK  166 active torsions:
REMARK  status: ('A' for Active; 'I' for Inactive)
REMARK    1  A    between atoms: _1  and  _3
REMARK    2  A    between atoms: _3  and  _4
REMARK    3  A    between atoms: _3  and  _6
REMARK    4  A    between atoms: _6  and  _7
REMARK    5  A    between atoms: _12  and  _14
REMARK    6  A    between atoms: _14  and  _15
REMARK    7  A    between atoms: _14  and  _17
REMARK    8  A    between atoms: _17  and  _18
REMARK    9  A    between atoms: _28  and  _30
REMARK   10  A    between atoms: _30  and  _31
REMARK   11  A    between atoms: _30  and  _33
REMARK   12  A    between atoms: _33  and  _34
REMARK   13  A    between atoms: _39  and  _40
REMARK   14  A    between atoms: _42  and  _44
REMARK   15  A    between atoms: _44  and  _45
REMARK   16  A    between atoms: _44  and  _47
REMARK   17  A    between atoms: _47  and  _48
REMARK   18  A    between atoms: _54  and  _56
REMARK   19  A    between atoms: _56  and  _57
REMARK   20  A    between atoms: _56  and  _59
REMARK   21  A    between atoms: _59  and  _60
REMARK   22  A    between atoms: _63  and  _64
REMARK   23  A    between atoms: _69  and  _71
REMARK   24  A    between atoms: _71  and  _72
REMARK   25  A    between atoms: _71  and  _74
REMARK   26  A    between atoms: _74  and  _75
REMARK   27  A    between atoms: _80  and  _82
REMARK   28  A    between atoms: _82  and  _83
REMARK   29  A    between atoms: _82  and  _85
REMARK   30  A    between atoms: _85  and  _86
REMARK   31  A    between atoms: _91  and  _93
REMARK   32  A    between atoms: _93  and  _94
REMARK   33  A    between atoms: _97  and  _99
REMARK   34  A    between atoms: _99  and  _100
REMARK   35  A    between atoms: _99  and  _102
REMARK   36  A    between atoms: _102  and  _103
REMARK   37  A    between atoms: _108  and  _110
REMARK   38  A    between atoms: _110  and  _111
REMARK   39  A    between atoms: _110  and  _113
REMARK   40  A    between atoms: _113  and  _114
REMARK   41  A    between atoms: _117  and  _119
REMARK   42  A    between atoms: _119  and  _120
REMARK   43  A    between atoms: _119  and  _122
REMARK   44  A    between atoms: _122  and  _123
REMARK   45  A    between atoms: _123  and  _124
REMARK   46  A    between atoms: _129  and  _131
REMARK   47  A    between atoms: _131  and  _132
REMARK   48  A    between atoms: _131  and  _134
REMARK   49  A    between atoms: _134  and  _135
REMARK   50  A    between atoms: _141  and  _143
REMARK   51  A    between atoms: _154  and  _157
REMARK   52  A    between atoms: _157  and  _158
REMARK   53  A    between atoms: _166  and  _167
REMARK   54  A    between atoms: _175  and  _177
REMARK   55  A    between atoms: _177  and  _178
REMARK   56  A    between atoms: _177  and  _180
REMARK   57  A    between atoms: _180  and  _181
REMARK   58  A    between atoms: _181  and  _182
REMARK   59  A    between atoms: _185  and  _187
REMARK   60  A    between atoms: _187  and  _188
REMARK   61  A    between atoms: _187  and  _190
REMARK   62  A    between atoms: _190  and  _191
REMARK   63  A    between atoms: _196  and  _198
REMARK   64  A    between atoms: _198  and  _199
REMARK   65  A    between atoms: _198  and  _201
REMARK   66  A    between atoms: _201  and  _202
REMARK   67  A    between atoms: _202  and  _203
REMARK   68  A    between atoms: _206  and  _208
REMARK   69  A    between atoms: _208  and  _209
REMARK   70  A    between atoms: _208  and  _211
REMARK   71  A    between atoms: _211  and  _212
REMARK   72  A    between atoms: _215  and  _217
REMARK   73  A    between atoms: _217  and  _218
REMARK   74  A    between atoms: _217  and  _220
REMARK   75  A    between atoms: _220  and  _221
REMARK   76  A    between atoms: _222  and  ZN_460
REMARK   77  A    between atoms: _226  and  _228
REMARK   78  A    between atoms: _228  and  _229
REMARK   79  A    between atoms: _228  and  _231
REMARK   80  A    between atoms: _231  and  _232
REMARK   81  A    between atoms: _235  and  _237
REMARK   82  A    between atoms: _237  and  _238
REMARK   83  A    between atoms: _237  and  _240
REMARK   84  A    between atoms: _243  and  _245
REMARK   85  A    between atoms: _245  and  _246
REMARK   86  A    between atoms: _245  and  _248
REMARK   87  A    between atoms: _248  and  _249
REMARK   88  A    between atoms: _254  and  _256
REMARK   89  A    between atoms: _256  and  _257
REMARK   90  A    between atoms: _256  and  _259
REMARK   91  A    between atoms: _259  and  _260
REMARK   92  A    between atoms: _266  and  _268
REMARK   93  A    between atoms: _268  and  _269
REMARK   94  A    between atoms: _271  and  _273
REMARK   95  A    between atoms: _273  and  _274
REMARK   96  A    between atoms: _273  and  _276
REMARK   97  A    between atoms: _276  and  _277
REMARK   98  A    between atoms: _277  and  _278
REMARK   99  A    between atoms: _278  and  _279
REMARK  100  A    between atoms: _279  and  _280
REMARK  101  A    between atoms: _284  and  _286
REMARK  102  A    between atoms: _286  and  _287
REMARK  103  A    between atoms: _286  and  _289
REMARK  104  A    between atoms: _292  and  _294
REMARK  105  A    between atoms: _294  and  _295
REMARK  106  A    between atoms: _294  and  _297
REMARK  107  A    between atoms: _297  and  _298
REMARK  108  A    between atoms: _298  and  _299
REMARK  109  A    between atoms: _304  and  _306
REMARK  110  A    between atoms: _306  and  _307
REMARK  111  A    between atoms: _306  and  _309
REMARK  112  A    between atoms: _309  and  _310
REMARK  113  A    between atoms: _313  and  _315
REMARK  114  A    between atoms: _315  and  _316
REMARK  115  A    between atoms: _319  and  _321
REMARK  116  A    between atoms: _321  and  _322
REMARK  117  A    between atoms: _321  and  _324
REMARK  118  A    between atoms: _327  and  _329
REMARK  119  A    between atoms: _329  and  _330
REMARK  120  A    between atoms: _329  and  _332
REMARK  121  A    between atoms: _332  and  _333
REMARK  122  A    between atoms: _336  and  _338
REMARK  123  A    between atoms: _338  and  _339
REMARK  124  A    between atoms: _341  and  _343
REMARK  125  A    between atoms: _343  and  _344
REMARK  126  A    between atoms: _343  and  _346
REMARK  127  A    between atoms: _346  and  _347
REMARK  128  A    between atoms: _349  and  _351
REMARK  129  A    between atoms: _351  and  _352
REMARK  130  A    between atoms: _351  and  _354
REMARK  131  A    between atoms: _354  and  _355
REMARK  132  A    between atoms: _358  and  _360
REMARK  133  A    between atoms: _360  and  _361
REMARK  134  A    between atoms: _360  and  _363
REMARK  135  A    between atoms: _363  and  _364
REMARK  136  A    between atoms: _367  and  _369
REMARK  137  A    between atoms: _369  and  _370
REMARK  138  A    between atoms: _369  and  _372
REMARK  139  A    between atoms: _372  and  _373
REMARK  140  A    between atoms: _377  and  _378
REMARK  141  A    between atoms: _384  and  _385
REMARK  142  A    between atoms: _390  and  _392
REMARK  143  A    between atoms: _392  and  _393
REMARK  144  A    between atoms: _392  and  _395
REMARK  145  A    between atoms: _395  and  _396
REMARK  146  A    between atoms: _399  and  _401
REMARK  147  A    between atoms: _401  and  _402
REMARK  148  A    between atoms: _401  and  _404
REMARK  149  A    between atoms: _404  and  _405
REMARK  150  A    between atoms: _408  and  _410
REMARK  151  A    between atoms: _410  and  _411
REMARK  152  A    between atoms: _410  and  _413
REMARK  153  A    between atoms: _416  and  _418
REMARK  154  A    between atoms: _418  and  _419
REMARK  155  A    between atoms: _418  and  _421
REMARK  156  A    between atoms: _421  and  _422
REMARK  157  A    between atoms: _432  and  _434
REMARK  158  A    between atoms: _434  and  _435
REMARK  159  A    between atoms: _434  and  _437
REMARK  160  A    between atoms: _437  and  _438
REMARK  161  A    between atoms: _443  and  _445
REMARK  162  A    between atoms: _445  and  _446
REMARK  163  A    between atoms: _445  and  _448
REMARK  164  A    between atoms: _448  and  _449
REMARK  165  A    between atoms: _449  and  _450
REMARK  166  A    between atoms: _450  and  _451
REMARK                            x       y       z     vdW  Elec       q    Type
REMARK                         _______ _______ _______ _____ _____    ______ ____
ROOT
ATOM      1  C   VAL A   1      -2.816  12.336  21.085  0.00  0.00    +0.238 C 
ATOM      2  N   GLN A   2      -3.059  13.505  21.661  0.00  0.00    -0.298 N 
ATOM      3  H   GLN A   2      -3.944  14.008  21.448  0.00  0.00    +0.150 HD
ATOM      4  O   VAL A   1      -1.795  11.716  21.326  0.00  0.00    -0.274 OA
ENDROOT
BRANCH   1   5
ATOM      5  CA  VAL A   1      -3.883  11.751  20.135  0.00  0.00    +0.145 C 
BRANCH   5   6
ATOM      6  CB  VAL A   1      -3.222  11.157  18.846  0.00  0.00    +0.025 C 
ATOM      7  CG2 VAL A   1      -2.432  12.201  18.095  0.00  0.00    +0.002 C 
ATOM      8  CG1 VAL A   1      -4.301  10.528  17.946  0.00  0.00    +0.002 C 
ENDBRANCH   5   6
BRANCH   5   9
ATOM      9  N   VAL A   1      -4.978  12.675  19.843  0.00  0.00    -0.238 NA
ATOM     10  H   VAL A   1      -5.079  13.078  18.889  0.00  0.00    +0.142 HD
ENDBRANCH   5   9
ENDBRANCH   1   5
BRANCH   2  11
ATOM     11  CA  GLN A   2      -2.100  14.097  22.592  0.00  0.00    +0.137 C 
BRANCH  11  12
ATOM     12  C   GLN A   2      -2.662  14.144  24.018  0.00  0.00    +0.227 C 
ATOM     13  O   GLN A   2      -2.015  14.644  24.931  0.00  0.00    -0.286 OA
ENDBRANCH  11  12
BRANCH  11  14
ATOM     14  CB  GLN A   2      -1.697  15.508  22.120  0.00  0.00    +0.037 C 
BRANCH  14  15
ATOM     15  CG  GLN A   2      -0.844  15.508  20.839  0.00  0.00    +0.087 C 
BRANCH  15  16
ATOM     16  CD  GLN A   2      -0.503  16.901  20.340  0.00  0.00    +0.219 C 
ATOM     17  OE1 GLN A   2       0.093  17.707  21.052  0.00  0.00    -0.275 OA
ATOM     18  NE2 GLN A   2      -0.872  17.185  19.102  0.00  0.00    -0.329 N 
ATOM     19 HE21 GLN A   2      -0.659  18.119  18.697  0.00  0.00    +0.145 HD
ATOM     20 HE22 GLN A   2      -1.375  16.474  18.533  0.00  0.00    +0.145 HD
ENDBRANCH  15  16
ENDBRANCH  14  15
ENDBRANCH  11  14
ENDBRANCH   2  11
TORSDOF 8
REMARK  Name = ../refined-set-2016/1if8/1if8_pocket.pdb
REMARK  166 active torsions:
REMARK  status: ('A' for Active; 'I' for Inactive)
REMARK    1  A    between atoms: _1  and  _3
REMARK    2  A    between atoms: _3  and  _4
REMARK    3  A    between atoms: _3  and  _6
REMARK    4  A    between atoms: _6  and  _7
REMARK    5  A    between atoms: _12  and  _14
REMARK    6  A    between atoms: _14  and  _15
REMARK    7  A    between atoms: _14  and  _17
REMARK    8  A    between atoms: _17  and  _18
REMARK    9  A    between atoms: _28  and  _30
REMARK   10  A    between atoms: _30  and  _31
REMARK   11  A    between atoms: _30  and  _33
REMARK   12  A    between atoms: _33  and  _34
REMARK   13  A    between atoms: _39  and  _40
REMARK   14  A    between atoms: _42  and  _44
REMARK   15  A    between atoms: _44  and  _45
REMARK   16  A    between atoms: _44  and  _47
REMARK   17  A    between atoms: _47  and  _48
REMARK   18  A    between atoms: _54  and  _56
REMARK   19  A    between atoms: _56  and  _57
REMARK   20  A    between atoms: _56  and  _59
REMARK   21  A    between atoms: _59  and  _60
REMARK   22  A    between atoms: _63  and  _64
REMARK   23  A    between atoms: _69  and  _71
REMARK   24  A    between atoms: _71  and  _72
REMARK   25  A    between atoms: _71  and  _74
REMARK   26  A    between atoms: _74  and  _75
REMARK   27  A    between atoms: _80  and  _82
REMARK   28  A    between atoms: _82  and  _83
REMARK   29  A    between atoms: _82  and  _85
REMARK   30  A    between atoms: _85  and  _86
REMARK   31  A    between atoms: _91  and  _93
REMARK   32  A    between atoms: _93  and  _94
REMARK   33  A    between atoms: _97  and  _99
REMARK   34  A    between atoms: _99  and  _100
REMARK   35  A    between atoms: _99  and  _102
REMARK   36  A    between atoms: _102  and  _103
REMARK   37  A    between atoms: _108  and  _110
REMARK   38  A    between atoms: _110  and  _111
REMARK   39  A    between atoms: _110  and  _113
REMARK   40  A    between atoms: _113  and  _114
REMARK   41  A    between atoms: _117  and  _119
REMARK   42  A    between atoms: _119  and  _120
REMARK   43  A    between atoms: _119  and  _122
REMARK   44  A    between atoms: _122  and  _123
REMARK   45  A    between atoms: _123  and  _124
REMARK   46  A    between atoms: _129  and  _131
REMARK   47  A    between atoms: _131  and  _132
REMARK   48  A    between atoms: _131  and  _134
REMARK   49  A    between atoms: _134  and  _135
REMARK   50  A    between atoms: _141  and  _143
REMARK   51  A    between atoms: _154  and  _157
REMARK   52  A    between atoms: _157  and  _158
REMARK   53  A    between atoms: _166  and  _167
REMARK   54  A    between atoms: _175  and  _177
REMARK   55  A    between atoms: _177  and  _178
REMARK   56  A    between atoms: _177  and  _180
REMARK   57  A    between atoms: _180  and  _181
REMARK   58  A    between atoms: _181  and  _182
REMARK   59  A    between atoms: _185  and  _187
REMARK   60  A    between atoms: _187  and  _188
REMARK   61  A    between atoms: _187  and  _190
REMARK   62  A    between atoms: _190  and  _191
REMARK   63  A    between atoms: _196  and  _198
REMARK   64  A    between atoms: _198  and  _199
REMARK   65  A    between atoms: _198  and  _201
REMARK   66  A    between atoms: _201  and  _202
REMARK   67  A    between atoms: _202  and  _203
REMARK   68  A    between atoms: _206  and  _208
REMARK   69  A    between atoms: _208  and  _209
REMARK   70  A    between atoms: _208  and  _211
REMARK   71  A    between atoms: _211  and  _212
REMARK   72  A    between atoms: _215  and  _217
REMARK   73  A    between atoms: _217  and  _218
REMARK   74  A    between atoms: _217  and  _220
REMARK   75  A    between atoms: _220  and  _221
REMARK   76  A    between atoms: _222  and  ZN_460
REMARK   77  A    between atoms: _226  and  _228
REMARK   78  A    between atoms: _228  and  _229
REMARK   79  A    between atoms: _228  and  _231
REMARK   80  A    between atoms: _231  and  _232
REMARK   81  A    between atoms: _235  and  _237
REMARK   82  A    between atoms: _237  and  _238
REMARK   83  A    between atoms: _237  and  _240
REMARK   84  A    between atoms: _243  and  _245
REMARK   85  A    between atoms: _245  and  _246
REMARK   86  A    between atoms: _245  and  _248
REMARK   87  A    between atoms: _248  and  _249
REMARK   88  A    between atoms: _254  and  _256
REMARK   89  A    between atoms: _256  and  _257
REMARK   90  A    between atoms: _256  and  _259
REMARK   91  A    between atoms: _259  and  _260
REMARK   92  A    between atoms: _266  and  _268
REMARK   93  A    between atoms: _268  and  _269
REMARK   94  A    between atoms: _271  and  _273
REMARK   95  A    between atoms: _273  and  _274
REMARK   96  A    between atoms: _273  and  _276
REMARK   97  A    between atoms: _276  and  _277
REMARK   98  A    between atoms: _277  and  _278
REMARK   99  A    between atoms: _278  and  _279
REMARK  100  A    between atoms: _279  and  _280
REMARK  101  A    between atoms: _284  and  _286
REMARK  102  A    between atoms: _286  and  _287
REMARK  103  A    between atoms: _286  and  _289
REMARK  104  A    between atoms: _292  and  _294
REMARK  105  A    between atoms: _294  and  _295
REMARK  106  A    between atoms: _294  and  _297
REMARK  107  A    between atoms: _297  and  _298
REMARK  108  A    between atoms: _298  and  _299
REMARK  109  A    between atoms: _304  and  _306
REMARK  110  A    between atoms: _306  and  _307
REMARK  111  A    between atoms: _306  and  _309
REMARK  112  A    between atoms: _309  and  _310
REMARK  113  A    between atoms: _313  and  _315
REMARK  114  A    between atoms: _315  and  _316
REMARK  115  A    between atoms: _319  and  _321
REMARK  116  A    between atoms: _321  and  _322
REMARK  117  A    between atoms: _321  and  _324
REMARK  118  A    between atoms: _327  and  _329
REMARK  119  A    between atoms: _329  and  _330
REMARK  120  A    between atoms: _329  and  _332
REMARK  121  A    between atoms: _332  and  _333
REMARK  122  A    between atoms: _336  and  _338
REMARK  123  A    between atoms: _338  and  _339
REMARK  124  A    between atoms: _341  and  _343
REMARK  125  A    between atoms: _343  and  _344
REMARK  126  A    between atoms: _343  and  _346
REMARK  127  A    between atoms: _346  and  _347
REMARK  128  A    between atoms: _349  and  _351
REMARK  129  A    between atoms: _351  and  _352
REMARK  130  A    between atoms: _351  and  _354
REMARK  131  A    between atoms: _354  and  _355
REMARK  132  A    between atoms: _358  and  _360
REMARK  133  A    between atoms: _360  and  _361
REMARK  134  A    between atoms: _360  and  _363
REMARK  135  A    between atoms: _363  and  _364
REMARK  136  A    between atoms: _367  and  _369
REMARK  137  A    between atoms: _369  and  _370
REMARK  138  A    between atoms: _369  and  _372
REMARK  139  A    between atoms: _372  and  _373
REMARK  140  A    between atoms: _377  and  _378
REMARK  141  A    between atoms: _384  and  _385
REMARK  142  A    between atoms: _390  and  _392
REMARK  143  A    between atoms: _392  and  _393
REMARK  144  A    between atoms: _392  and  _395
REMARK  145  A    between atoms: _395  and  _396
REMARK  146  A    between atoms: _399  and  _401
REMARK  147  A    between atoms: _401  and  _402
REMARK  148  A    between atoms: _401  and  _404
REMARK  149  A    between atoms: _404  and  _405
REMARK  150  A    between atoms: _408  and  _410
REMARK  151  A    between atoms: _410  and  _411
REMARK  152  A    between atoms: _410  and  _413
REMARK  153  A    between atoms: _416  and  _418
REMARK  154  A    between atoms: _418  and  _419
REMARK  155  A    between atoms: _418  and  _421
REMARK  156  A    between atoms: _421  and  _422
REMARK  157  A    between atoms: _432  and  _434
REMARK  158  A    between atoms: _434  and  _435
REMARK  159  A    between atoms: _434  and  _437
REMARK  160  A    between atoms: _437  and  _438
REMARK  161  A    between atoms: _443  and  _445
REMARK  162  A    between atoms: _445  and  _446
REMARK  163  A    between atoms: _445  and  _448
REMARK  164  A    between atoms: _448  and  _449
REMARK  165  A    between atoms: _449  and  _450
REMARK  166  A    between atoms: _450  and  _451
REMARK                            x       y       z     vdW  Elec       q    Type
REMARK                         _______ _______ _______ _____ _____    ______ ____
ROOT
ATOM      1  CA  VAL A   3     -12.171   2.213  20.378  0.00  0.00    +0.149 C 
ENDROOT
BRANCH   1   3
ATOM      2  C   ALA A   2     -12.544   4.488  21.123  0.00  0.00    +0.241 C 
ATOM      3  N   VAL A   3     -12.106   3.262  21.387  0.00  0.00    -0.297 N 
ATOM      4  H   VAL A   3     -11.712   3.048  22.325  0.00  0.00    +0.150 HD
ATOM      5  O   ALA A   2     -12.887   4.850  19.991  0.00  0.00    -0.273 OA
BRANCH   2   6
ATOM      6  CA  ALA A   2     -12.467   5.497  22.271  0.00  0.00    +0.149 C 
ATOM      7  CB  ALA A   2     -13.848   6.078  22.562  0.00  0.00    +0.031 C 
BRANCH   6  10
ATOM      8  C   LEU A   1     -10.688   7.128  22.595  0.00  0.00    +0.238 C 
ATOM      9  O   LEU A   1     -10.629   6.933  23.800  0.00  0.00    -0.274 OA
ATOM     10  N   ALA A   2     -11.553   6.519  21.802  0.00  0.00    -0.297 N 
ATOM     11  H   ALA A   2     -11.579   6.785  20.797  0.00  0.00    +0.150 HD
BRANCH   8  12
ATOM     12  CA  LEU A   1      -9.768   8.119  21.902  0.00  0.00    +0.145 C 
BRANCH  12  13
ATOM     13  N   LEU A   1      -9.137   9.128  22.740  0.00  0.00    -0.238 NA
ATOM     14  H   LEU A   1      -8.523   8.831  23.525  0.00  0.00    +0.142 HD
ENDBRANCH  12  13
BRANCH  12  15
ATOM     15  CB  LEU A   1      -8.704   7.329  21.129  0.00  0.00    +0.026 C 
BRANCH  15  16
ATOM     16  CG  LEU A   1      -7.856   8.070  20.104  0.00  0.00    +0.002 C 
ATOM     17  CD2 LEU A   1      -7.104   7.076  19.262  0.00  0.00    +0.000 C 
ATOM     18  CD1 LEU A   1      -8.749   8.900  19.213  0.00  0.00    +0.000 C 
ENDBRANCH  15  16
ENDBRANCH  12  15
ENDBRANCH   8  12
ENDBRANCH   6  10
ENDBRANCH   2   6
ENDBRANCH   1   3
BRANCH   1  19
ATOM     19  C   VAL A   3     -13.161   1.159  20.859  0.00  0.00    +0.241 C 
ATOM     20  O   VAL A   3     -13.058   0.647  21.979  0.00  0.00    -0.273 OA
ATOM     21  N   LEU A   4     -14.154   0.902  20.024  0.00  0.00    -0.297 N 
ATOM     22  H   LEU A   4     -14.194   1.423  19.125  0.00  0.00    +0.150 HD
BRANCH  21  23
ATOM     23  CA  LEU A   4     -15.190  -0.073  20.305  0.00  0.00    +0.149 C 
BRANCH  23  24
ATOM     24  C   LEU A   4     -14.712  -1.377  19.650  0.00  0.00    +0.241 C 
ATOM     25  N   GLY A   5     -14.373  -2.368  20.470  0.00  0.00    -0.296 N 
ATOM     26  H   GLY A   5     -14.467  -2.229  21.496  0.00  0.00    +0.150 HD
ATOM     27  O   LEU A   4     -14.586  -1.449  18.431  0.00  0.00    -0.273 OA
BRANCH  25  28
ATOM     28  CA  GLY A   5     -13.874  -3.643  19.970  0.00  0.00    +0.163 C 
BRANCH  28  29
ATOM     29  C   GLY A   5     -14.893  -4.767  19.958  0.00  0.00    +0.229 C 
ATOM     30  O   GLY A   5     -15.615  -4.990  20.942  0.00  0.00    -0.286 OA
ENDBRANCH  28  29
ENDBRANCH  25  28
ENDBRANCH  23  24
BRANCH  23  31
ATOM     31  CB  LEU A   4     -16.499   0.426  19.697  0.00  0.00    +0.029 C 
BRANCH  31  32
ATOM     32  CG  LEU A   4     -17.833  -0.245  20.027  0.00  0.00    +0.002 C 
ATOM     33  CD2 LEU A   4     -18.057  -0.253  21.545  0.00  0.00    +0.000 C 
ATOM     34  CD1 LEU A   4     -18.972   0.512  19.308  0.00  0.00    +0.000 C 
ENDBRANCH  31  32
ENDBRANCH  23  31
ENDBRANCH  21  23
ENDBRANCH   1  19
BRANCH   1  35
ATOM     35  CB  VAL A   3     -10.794   1.542  20.088  0.00  0.00    +0.027 C 
ATOM     36  CG2 VAL A   3      -9.736   2.595  19.842  0.00  0.00    +0.002 C 
ATOM     37  CG1 VAL A   3     -10.905   0.594  18.884  0.00  0.00    +0.002 C 
ENDBRANCH   1  35
TORSDOF 15
REMARK  Name = ../refined-set-2016/1if8/1if8_pocket.pdb
REMARK  166 active torsions:
REMARK  status: ('A' for Active; 'I' for Inactive)
REMARK    1  A    between atoms: _1  and  _3
REMARK    2  A    between atoms: _3  and  _4
REMARK    3  A    between atoms: _3  and  _6
REMARK    4  A    between atoms: _6  and  _7
REMARK    5  A    between atoms: _12  and  _14
REMARK    6  A    between atoms: _14  and  _15
REMARK    7  A    between atoms: _14  and  _17
REMARK    8  A    between atoms: _17  and  _18
REMARK    9  A    between atoms: _28  and  _30
REMARK   10  A    between atoms: _30  and  _31
REMARK   11  A    between atoms: _30  and  _33
REMARK   12  A    between atoms: _33  and  _34
REMARK   13  A    between atoms: _39  and  _40
REMARK   14  A    between atoms: _42  and  _44
REMARK   15  A    between atoms: _44  and  _45
REMARK   16  A    between atoms: _44  and  _47
REMARK   17  A    between atoms: _47  and  _48
REMARK   18  A    between atoms: _54  and  _56
REMARK   19  A    between atoms: _56  and  _57
REMARK   20  A    between atoms: _56  and  _59
REMARK   21  A    between atoms: _59  and  _60
REMARK   22  A    between atoms: _63  and  _64
REMARK   23  A    between atoms: _69  and  _71
REMARK   24  A    between atoms: _71  and  _72
REMARK   25  A    between atoms: _71  and  _74
REMARK   26  A    between atoms: _74  and  _75
REMARK   27  A    between atoms: _80  and  _82
REMARK   28  A    between atoms: _82  and  _83
REMARK   29  A    between atoms: _82  and  _85
REMARK   30  A    between atoms: _85  and  _86
REMARK   31  A    between atoms: _91  and  _93
REMARK   32  A    between atoms: _93  and  _94
REMARK   33  A    between atoms: _97  and  _99
REMARK   34  A    between atoms: _99  and  _100
REMARK   35  A    between atoms: _99  and  _102
REMARK   36  A    between atoms: _102  and  _103
REMARK   37  A    between atoms: _108  and  _110
REMARK   38  A    between atoms: _110  and  _111
REMARK   39  A    between atoms: _110  and  _113
REMARK   40  A    between atoms: _113  and  _114
REMARK   41  A    between atoms: _117  and  _119
REMARK   42  A    between atoms: _119  and  _120
REMARK   43  A    between atoms: _119  and  _122
REMARK   44  A    between atoms: _122  and  _123
REMARK   45  A    between atoms: _123  and  _124
REMARK   46  A    between atoms: _129  and  _131
REMARK   47  A    between atoms: _131  and  _132
REMARK   48  A    between atoms: _131  and  _134
REMARK   49  A    between atoms: _134  and  _135
REMARK   50  A    between atoms: _141  and  _143
REMARK   51  A    between atoms: _154  and  _157
REMARK   52  A    between atoms: _157  and  _158
REMARK   53  A    between atoms: _166  and  _167
REMARK   54  A    between atoms: _175  and  _177
REMARK   55  A    between atoms: _177  and  _178
REMARK   56  A    between atoms: _177  and  _180
REMARK   57  A    between atoms: _180  and  _181
REMARK   58  A    between atoms: _181  and  _182
REMARK   59  A    between atoms: _185  and  _187
REMARK   60  A    between atoms: _187  and  _188
REMARK   61  A    between atoms: _187  and  _190
REMARK   62  A    between atoms: _190  and  _191
REMARK   63  A    between atoms: _196  and  _198
REMARK   64  A    between atoms: _198  and  _199
REMARK   65  A    between atoms: _198  and  _201
REMARK   66  A    between atoms: _201  and  _202
REMARK   67  A    between atoms: _202  and  _203
REMARK   68  A    between atoms: _206  and  _208
REMARK   69  A    between atoms: _208  and  _209
REMARK   70  A    between atoms: _208  and  _211
REMARK   71  A    between atoms: _211  and  _212
REMARK   72  A    between atoms: _215  and  _217
REMARK   73  A    between atoms: _217  and  _218
REMARK   74  A    between atoms: _217  and  _220
REMARK   75  A    between atoms: _220  and  _221
REMARK   76  A    between atoms: _222  and  ZN_460
REMARK   77  A    between atoms: _226  and  _228
REMARK   78  A    between atoms: _228  and  _229
REMARK   79  A    between atoms: _228  and  _231
REMARK   80  A    between atoms: _231  and  _232
REMARK   81  A    between atoms: _235  and  _237
REMARK   82  A    between atoms: _237  and  _238
REMARK   83  A    between atoms: _237  and  _240
REMARK   84  A    between atoms: _243  and  _245
REMARK   85  A    between atoms: _245  and  _246
REMARK   86  A    between atoms: _245  and  _248
REMARK   87  A    between atoms: _248  and  _249
REMARK   88  A    between atoms: _254  and  _256
REMARK   89  A    between atoms: _256  and  _257
REMARK   90  A    between atoms: _256  and  _259
REMARK   91  A    between atoms: _259  and  _260
REMARK   92  A    between atoms: _266  and  _268
REMARK   93  A    between atoms: _268  and  _269
REMARK   94  A    between atoms: _271  and  _273
REMARK   95  A    between atoms: _273  and  _274
REMARK   96  A    between atoms: _273  and  _276
REMARK   97  A    between atoms: _276  and  _277
REMARK   98  A    between atoms: _277  and  _278
REMARK   99  A    between atoms: _278  and  _279
REMARK  100  A    between atoms: _279  and  _280
REMARK  101  A    between atoms: _284  and  _286
REMARK  102  A    between atoms: _286  and  _287
REMARK  103  A    between atoms: _286  and  _289
REMARK  104  A    between atoms: _292  and  _294
REMARK  105  A    between atoms: _294  and  _295
REMARK  106  A    between atoms: _294  and  _297
REMARK  107  A    between atoms: _297  and  _298
REMARK  108  A    between atoms: _298  and  _299
REMARK  109  A    between atoms: _304  and  _306
REMARK  110  A    between atoms: _306  and  _307
REMARK  111  A    between atoms: _306  and  _309
REMARK  112  A    between atoms: _309  and  _310
REMARK  113  A    between atoms: _313  and  _315
REMARK  114  A    between atoms: _315  and  _316
REMARK  115  A    between atoms: _319  and  _321
REMARK  116  A    between atoms: _321  and  _322
REMARK  117  A    between atoms: _321  and  _324
REMARK  118  A    between atoms: _327  and  _329
REMARK  119  A    between atoms: _329  and  _330
REMARK  120  A    between atoms: _329  and  _332
REMARK  121  A    between atoms: _332  and  _333
REMARK  122  A    between atoms: _336  and  _338
REMARK  123  A    between atoms: _338  and  _339
REMARK  124  A    between atoms: _341  and  _343
REMARK  125  A    between atoms: _343  and  _344
REMARK  126  A    between atoms: _343  and  _346
REMARK  127  A    between atoms: _346  and  _347
REMARK  128  A    between atoms: _349  and  _351
REMARK  129  A    between atoms: _351  and  _352
REMARK  130  A    between atoms: _351  and  _354
REMARK  131  A    between atoms: _354  and  _355
REMARK  132  A    between atoms: _358  and  _360
REMARK  133  A    between atoms: _360  and  _361
REMARK  134  A    between atoms: _360  and  _363
REMARK  135  A    between atoms: _363  and  _364
REMARK  136  A    between atoms: _367  and  _369
REMARK  137  A    between atoms: _369  and  _370
REMARK  138  A    between atoms: _369  and  _372
REMARK  139  A    between atoms: _372  and  _373
REMARK  140  A    between atoms: _377  and  _378
REMARK  141  A    between atoms: _384  and  _385
REMARK  142  A    between atoms: _390  and  _392
REMARK  143  A    between atoms: _392  and  _393
REMARK  144  A    between atoms: _392  and  _395
REMARK  145  A    between atoms: _395  and  _396
REMARK  146  A    between atoms: _399  and  _401
REMARK  147  A    between atoms: _401  and  _402
REMARK  148  A    between atoms: _401  and  _404
REMARK  149  A    between atoms: _404  and  _405
REMARK  150  A    between atoms: _408  and  _410
REMARK  151  A    between atoms: _410  and  _411
REMARK  152  A    between atoms: _410  and  _413
REMARK  153  A    between atoms: _416  and  _418
REMARK  154  A    between atoms: _418  and  _419
REMARK  155  A    between atoms: _418  and  _421
REMARK  156  A    between atoms: _421  and  _422
REMARK  157  A    between atoms: _432  and  _434
REMARK  158  A    between atoms: _434  and  _435
REMARK  159  A    between atoms: _434  and  _437
REMARK  160  A    between atoms: _437  and  _438
REMARK  161  A    between atoms: _443  and  _445
REMARK  162  A    between atoms: _445  and  _446
REMARK  163  A    between atoms: _445  and  _448
REMARK  164  A    between atoms: _448  and  _449
REMARK  165  A    between atoms: _449  and  _450
REMARK  166  A    between atoms: _450  and  _451
REMARK                            x       y       z     vdW  Elec       q    Type
REMARK                         _______ _______ _______ _____ _____    ______ ____
ROOT
ATOM      1  C   THR A   4       0.896   0.745  16.808  0.00  0.00    +0.246 C 
ATOM      2  O   THR A   4       0.467   1.658  17.538  0.00  0.00    -0.273 OA
ATOM      3  N   PRO A   5       2.125   0.807  16.248  0.00  0.00    -0.272 N 
ATOM      4  CA  PRO A   5       2.892   2.049  16.404  0.00  0.00    +0.152 C 
ATOM      5  CB  PRO A   5       4.092   1.813  15.483  0.00  0.00    +0.031 C 
ATOM      6  CG  PRO A   5       4.362   0.347  15.699  0.00  0.00    +0.024 C 
ATOM      7  CD  PRO A   5       2.960  -0.247  15.633  0.00  0.00    +0.094 C 
ENDROOT
BRANCH   4   8
ATOM      8  C   PRO A   5       2.015   3.223  15.931  0.00  0.00    +0.244 C 
ATOM      9  N   PRO A   6       2.141   4.408  16.557  0.00  0.00    -0.272 N 
ATOM     10  CA  PRO A   6       2.972   4.897  17.653  0.00  0.00    +0.152 C 
ATOM     11  CB  PRO A   6       2.712   6.402  17.615  0.00  0.00    +0.031 C 
ATOM     12  CG  PRO A   6       2.185   6.646  16.304  0.00  0.00    +0.024 C 
ATOM     13  CD  PRO A   6       1.300   5.510  16.075  0.00  0.00    +0.094 C 
ATOM     14  O   PRO A   5       1.271   3.088  14.954  0.00  0.00    -0.273 OA
BRANCH  10  15
ATOM     15  C   PRO A   6       2.710   4.353  19.067  0.00  0.00    +0.241 C 
ATOM     16  O   PRO A   6       3.376   4.794  20.019  0.00  0.00    -0.273 OA
ATOM     17  N   LEU A   7       1.711   3.478  19.220  0.00  0.00    -0.297 N 
ATOM     18  H   LEU A   7       1.139   3.219  18.391  0.00  0.00    +0.150 HD
BRANCH  17  19
ATOM     19  CA  LEU A   7       1.392   2.869  20.518  0.00  0.00    +0.149 C 
BRANCH  19  20
ATOM     20  C   LEU A   7       1.089   3.910  21.633  0.00  0.00    +0.241 C 
ATOM     21  O   LEU A   7       1.410   3.687  22.817  0.00  0.00    -0.273 OA
ATOM     22  N   LEU A   8       0.487   5.037  21.239  0.00  0.00    -0.298 N 
ATOM     23  H   LEU A   8       0.264   5.151  20.230  0.00  0.00    +0.150 HD
BRANCH  22  24
ATOM     24  CA  LEU A   8       0.124   6.124  22.162  0.00  0.00    +0.137 C 
BRANCH  24  25
ATOM     25  C   LEU A   8      -0.938   5.731  23.224  0.00  0.00    +0.227 C 
ATOM     26  O   LEU A   8      -1.931   5.076  22.927  0.00  0.00    -0.286 OA
ENDBRANCH  24  25
BRANCH  24  27
ATOM     27  CB  LEU A   8      -0.331   7.351  21.357  0.00  0.00    +0.028 C 
BRANCH  27  28
ATOM     28  CG  LEU A   8       0.677   7.789  20.287  0.00  0.00    +0.002 C 
ATOM     29  CD2 LEU A   8       1.994   8.183  20.917  0.00  0.00    +0.000 C 
ATOM     30  CD1 LEU A   8       0.127   8.931  19.479  0.00  0.00    +0.000 C 
ENDBRANCH  27  28
ENDBRANCH  24  27
ENDBRANCH  22  24
ENDBRANCH  19  20
BRANCH  19  31
ATOM     31  CB  LEU A   7       2.555   1.961  20.945  0.00  0.00    +0.029 C 
BRANCH  31  32
ATOM     32  CG  LEU A   7       3.048   0.902  19.944  0.00  0.00    +0.002 C 
ATOM     33  CD2 LEU A   7       4.437   0.414  20.384  0.00  0.00    +0.000 C 
ATOM     34  CD1 LEU A   7       2.049  -0.266  19.837  0.00  0.00    +0.000 C 
ENDBRANCH  31  32
ENDBRANCH  19  31
ENDBRANCH  17  19
ENDBRANCH  10  15
ENDBRANCH   4   8
BRANCH   1  35
ATOM     35  CA  THR A   4       0.081  -0.557  16.626  0.00  0.00    +0.176 C 
BRANCH  35  38
ATOM     36  C   THR A   3      -1.182  -1.758  18.362  0.00  0.00    +0.243 C 
ATOM     37  O   THR A   3      -0.653  -2.847  18.092  0.00  0.00    -0.273 OA
ATOM     38  N   THR A   4      -0.923  -0.633  17.693  0.00  0.00    -0.295 N 
ATOM     39  H   THR A   4      -1.455   0.226  17.938  0.00  0.00    +0.150 HD
BRANCH  36  40
ATOM     40  CA  THR A   3      -2.238  -1.670  19.463  0.00  0.00    +0.176 C 
BRANCH  40  43
ATOM     41  C   LEU A   2      -2.526   0.590  20.277  0.00  0.00    +0.241 C 
ATOM     42  O   LEU A   2      -1.561   0.452  21.028  0.00  0.00    -0.273 OA
ATOM     43  N   THR A   3      -2.951  -0.396  19.490  0.00  0.00    -0.295 N 
ATOM     44  H   THR A   3      -3.792  -0.259  18.894  0.00  0.00    +0.150 HD
BRANCH  41  45
ATOM     45  CA  LEU A   2      -3.290   1.920  20.291  0.00  0.00    +0.149 C 
BRANCH  45  48
ATOM     46  C   SER A   1      -3.704   1.796  22.716  0.00  0.00    +0.241 C 
ATOM     47  O   SER A   1      -4.507   0.870  22.605  0.00  0.00    -0.274 OA
ATOM     48  N   LEU A   2      -3.111   2.380  21.680  0.00  0.00    -0.297 N 
ATOM     49  H   LEU A   2      -2.493   3.198  21.857  0.00  0.00    +0.150 HD
BRANCH  46  50
ATOM     50  CA  SER A   1      -3.323   2.344  24.097  0.00  0.00    +0.174 C 
BRANCH  50  51
ATOM     51  N   SER A   1      -4.018   1.645  25.171  0.00  0.00    -0.236 NA
ATOM     52  H   SER A   1      -4.157   0.617  25.103  0.00  0.00    +0.142 HD
ENDBRANCH  50  51
BRANCH  50  53
ATOM     53  CB  SER A   1      -1.838   2.108  24.278  0.00  0.00    +0.163 C 
BRANCH  53  54
ATOM     54  OG  SER A   1      -1.584   0.722  24.107  0.00  0.00    -0.380 OA
ATOM     55  H   SER A   1      -1.864   0.446  23.199  0.00  0.00    +0.211 HD
ENDBRANCH  53  54
ENDBRANCH  50  53
ENDBRANCH  46  50
ENDBRANCH  45  48
BRANCH  45  56
ATOM     56  CB  LEU A   2      -2.589   2.881  19.339  0.00  0.00    +0.029 C 
BRANCH  56  57
ATOM     57  CG  LEU A   2      -3.097   4.312  19.354  0.00  0.00    +0.002 C 
ATOM     58  CD2 LEU A   2      -4.494   4.363  18.750  0.00  0.00    +0.000 C 
ATOM     59  CD1 LEU A   2      -2.141   5.185  18.578  0.00  0.00    +0.000 C 
ENDBRANCH  56  57
ENDBRANCH  45  56
ENDBRANCH  41  45
ENDBRANCH  40  43
BRANCH  40  60
ATOM     60  CB  THR A   3      -3.181  -2.852  19.312  0.00  0.00    +0.137 C 
ATOM     61  CG2 THR A   3      -4.205  -2.878  20.444  0.00  0.00    +0.034 C 
BRANCH  60  62
ATOM     62  OG1 THR A   3      -3.843  -2.770  18.045  0.00  0.00    -0.382 OA
ATOM     63  HG1 THR A   3      -4.458  -3.539  17.945  0.00  0.00    +0.210 HD
ENDBRANCH  60  62
ENDBRANCH  40  60
ENDBRANCH  36  40
ENDBRANCH  35  38
BRANCH  35  64
ATOM     64  CB  THR A   4      -0.592  -0.532  15.200  0.00  0.00    +0.137 C 
ATOM     65  CG2 THR A   4      -1.548  -1.707  15.005  0.00  0.00    +0.034 C 
BRANCH  64  66
ATOM     66  OG1 THR A   4      -1.333   0.682  15.045  0.00  0.00    -0.382 OA
ATOM     67  HG1 THR A   4      -0.721   1.455  15.136  0.00  0.00    +0.210 HD
ENDBRANCH  64  66
ENDBRANCH  35  64
ENDBRANCH   1  35
TORSDOF 26
REMARK  Name = ../refined-set-2016/1if8/1if8_pocket.pdb
REMARK  166 active torsions:
REMARK  status: ('A' for Active; 'I' for Inactive)
REMARK    1  A    between atoms: _1  and  _3
REMARK    2  A    between atoms: _3  and  _4
REMARK    3  A    between atoms: _3  and  _6
REMARK    4  A    between atoms: _6  and  _7
REMARK    5  A    between atoms: _12  and  _14
REMARK    6  A    between atoms: _14  and  _15
REMARK    7  A    between atoms: _14  and  _17
REMARK    8  A    between atoms: _17  and  _18
REMARK    9  A    between atoms: _28  and  _30
REMARK   10  A    between atoms: _30  and  _31
REMARK   11  A    between atoms: _30  and  _33
REMARK   12  A    between atoms: _33  and  _34
REMARK   13  A    between atoms: _39  and  _40
REMARK   14  A    between atoms: _42  and  _44
REMARK   15  A    between atoms: _44  and  _45
REMARK   16  A    between atoms: _44  and  _47
REMARK   17  A    between atoms: _47  and  _48
REMARK   18  A    between atoms: _54  and  _56
REMARK   19  A    between atoms: _56  and  _57
REMARK   20  A    between atoms: _56  and  _59
REMARK   21  A    between atoms: _59  and  _60
REMARK   22  A    between atoms: _63  and  _64
REMARK   23  A    between atoms: _69  and  _71
REMARK   24  A    between atoms: _71  and  _72
REMARK   25  A    between atoms: _71  and  _74
REMARK   26  A    between atoms: _74  and  _75
REMARK   27  A    between atoms: _80  and  _82
REMARK   28  A    between atoms: _82  and  _83
REMARK   29  A    between atoms: _82  and  _85
REMARK   30  A    between atoms: _85  and  _86
REMARK   31  A    between atoms: _91  and  _93
REMARK   32  A    between atoms: _93  and  _94
REMARK   33  A    between atoms: _97  and  _99
REMARK   34  A    between atoms: _99  and  _100
REMARK   35  A    between atoms: _99  and  _102
REMARK   36  A    between atoms: _102  and  _103
REMARK   37  A    between atoms: _108  and  _110
REMARK   38  A    between atoms: _110  and  _111
REMARK   39  A    between atoms: _110  and  _113
REMARK   40  A    between atoms: _113  and  _114
REMARK   41  A    between atoms: _117  and  _119
REMARK   42  A    between atoms: _119  and  _120
REMARK   43  A    between atoms: _119  and  _122
REMARK   44  A    between atoms: _122  and  _123
REMARK   45  A    between atoms: _123  and  _124
REMARK   46  A    between atoms: _129  and  _131
REMARK   47  A    between atoms: _131  and  _132
REMARK   48  A    between atoms: _131  and  _134
REMARK   49  A    between atoms: _134  and  _135
REMARK   50  A    between atoms: _141  and  _143
REMARK   51  A    between atoms: _154  and  _157
REMARK   52  A    between atoms: _157  and  _158
REMARK   53  A    between atoms: _166  and  _167
REMARK   54  A    between atoms: _175  and  _177
REMARK   55  A    between atoms: _177  and  _178
REMARK   56  A    between atoms: _177  and  _180
REMARK   57  A    between atoms: _180  and  _181
REMARK   58  A    between atoms: _181  and  _182
REMARK   59  A    between atoms: _185  and  _187
REMARK   60  A    between atoms: _187  and  _188
REMARK   61  A    between atoms: _187  and  _190
REMARK   62  A    between atoms: _190  and  _191
REMARK   63  A    between atoms: _196  and  _198
REMARK   64  A    between atoms: _198  and  _199
REMARK   65  A    between atoms: _198  and  _201
REMARK   66  A    between atoms: _201  and  _202
REMARK   67  A    between atoms: _202  and  _203
REMARK   68  A    between atoms: _206  and  _208
REMARK   69  A    between atoms: _208  and  _209
REMARK   70  A    between atoms: _208  and  _211
REMARK   71  A    between atoms: _211  and  _212
REMARK   72  A    between atoms: _215  and  _217
REMARK   73  A    between atoms: _217  and  _218
REMARK   74  A    between atoms: _217  and  _220
REMARK   75  A    between atoms: _220  and  _221
REMARK   76  A    between atoms: _222  and  ZN_460
REMARK   77  A    between atoms: _226  and  _228
REMARK   78  A    between atoms: _228  and  _229
REMARK   79  A    between atoms: _228  and  _231
REMARK   80  A    between atoms: _231  and  _232
REMARK   81  A    between atoms: _235  and  _237
REMARK   82  A    between atoms: _237  and  _238
REMARK   83  A    between atoms: _237  and  _240
REMARK   84  A    between atoms: _243  and  _245
REMARK   85  A    between atoms: _245  and  _246
REMARK   86  A    between atoms: _245  and  _248
REMARK   87  A    between atoms: _248  and  _249
REMARK   88  A    between atoms: _254  and  _256
REMARK   89  A    between atoms: _256  and  _257
REMARK   90  A    between atoms: _256  and  _259
REMARK   91  A    between atoms: _259  and  _260
REMARK   92  A    between atoms: _266  and  _268
REMARK   93  A    between atoms: _268  and  _269
REMARK   94  A    between atoms: _271  and  _273
REMARK   95  A    between atoms: _273  and  _274
REMARK   96  A    between atoms: _273  and  _276
REMARK   97  A    between atoms: _276  and  _277
REMARK   98  A    between atoms: _277  and  _278
REMARK   99  A    between atoms: _278  and  _279
REMARK  100  A    between atoms: _279  and  _280
REMARK  101  A    between atoms: _284  and  _286
REMARK  102  A    between atoms: _286  and  _287
REMARK  103  A    between atoms: _286  and  _289
REMARK  104  A    between atoms: _292  and  _294
REMARK  105  A    between atoms: _294  and  _295
REMARK  106  A    between atoms: _294  and  _297
REMARK  107  A    between atoms: _297  and  _298
REMARK  108  A    between atoms: _298  and  _299
REMARK  109  A    between atoms: _304  and  _306
REMARK  110  A    between atoms: _306  and  _307
REMARK  111  A    between atoms: _306  and  _309
REMARK  112  A    between atoms: _309  and  _310
REMARK  113  A    between atoms: _313  and  _315
REMARK  114  A    between atoms: _315  and  _316
REMARK  115  A    between atoms: _319  and  _321
REMARK  116  A    between atoms: _321  and  _322
REMARK  117  A    between atoms: _321  and  _324
REMARK  118  A    between atoms: _327  and  _329
REMARK  119  A    between atoms: _329  and  _330
REMARK  120  A    between atoms: _329  and  _332
REMARK  121  A    between atoms: _332  and  _333
REMARK  122  A    between atoms: _336  and  _338
REMARK  123  A    between atoms: _338  and  _339
REMARK  124  A    between atoms: _341  and  _343
REMARK  125  A    between atoms: _343  and  _344
REMARK  126  A    between atoms: _343  and  _346
REMARK  127  A    between atoms: _346  and  _347
REMARK  128  A    between atoms: _349  and  _351
REMARK  129  A    between atoms: _351  and  _352
REMARK  130  A    between atoms: _351  and  _354
REMARK  131  A    between atoms: _354  and  _355
REMARK  132  A    between atoms: _358  and  _360
REMARK  133  A    between atoms: _360  and  _361
REMARK  134  A    between atoms: _360  and  _363
REMARK  135  A    between atoms: _363  and  _364
REMARK  136  A    between atoms: _367  and  _369
REMARK  137  A    between atoms: _369  and  _370
REMARK  138  A    between atoms: _369  and  _372
REMARK  139  A    between atoms: _372  and  _373
REMARK  140  A    between atoms: _377  and  _378
REMARK  141  A    between atoms: _384  and  _385
REMARK  142  A    between atoms: _390  and  _392
REMARK  143  A    between atoms: _392  and  _393
REMARK  144  A    between atoms: _392  and  _395
REMARK  145  A    between atoms: _395  and  _396
REMARK  146  A    between atoms: _399  and  _401
REMARK  147  A    between atoms: _401  and  _402
REMARK  148  A    between atoms: _401  and  _404
REMARK  149  A    between atoms: _404  and  _405
REMARK  150  A    between atoms: _408  and  _410
REMARK  151  A    between atoms: _410  and  _411
REMARK  152  A    between atoms: _410  and  _413
REMARK  153  A    between atoms: _416  and  _418
REMARK  154  A    between atoms: _418  and  _419
REMARK  155  A    between atoms: _418  and  _421
REMARK  156  A    between atoms: _421  and  _422
REMARK  157  A    between atoms: _432  and  _434
REMARK  158  A    between atoms: _434  and  _435
REMARK  159  A    between atoms: _434  and  _437
REMARK  160  A    between atoms: _437  and  _438
REMARK  161  A    between atoms: _443  and  _445
REMARK  162  A    between atoms: _445  and  _446
REMARK  163  A    between atoms: _445  and  _448
REMARK  164  A    between atoms: _448  and  _449
REMARK  165  A    between atoms: _449  and  _450
REMARK  166  A    between atoms: _450  and  _451
REMARK                            x       y       z     vdW  Elec       q    Type
REMARK                         _______ _______ _______ _____ _____    ______ ____
ROOT
ATOM      1  CA  VAL A   1      -7.417   5.113  24.632  0.00  0.00    +0.133 C 
ENDROOT
BRANCH   1   2
ATOM      2  CB  VAL A   1      -7.192   3.970  23.583  0.00  0.00    +0.023 C 
ATOM      3  CG2 VAL A   1      -8.534   3.382  23.119  0.00  0.00    +0.002 C 
ATOM      4  CG1 VAL A   1      -6.337   4.466  22.413  0.00  0.00    +0.002 C 
ENDBRANCH   1   2
BRANCH   1   5
ATOM      5  N   VAL A   1      -6.175   5.844  24.838  0.00  0.00    -0.239 NA
ATOM      6  H   VAL A   1      -5.332   5.340  25.180  0.00  0.00    +0.142 HD
ENDBRANCH   1   5
BRANCH   1   7
ATOM      7  C   VAL A   1      -8.239   4.478  25.769  0.00  0.00    +0.224 C 
ATOM      8  O   VAL A   1      -7.720   3.787  26.637  0.00  0.00    -0.287 OA
ENDBRANCH   1   7
TORSDOF 3
REMARK  Name = ../refined-set-2016/1if8/1if8_pocket.pdb
REMARK  166 active torsions:
REMARK  status: ('A' for Active; 'I' for Inactive)
REMARK    1  A    between atoms: _1  and  _3
REMARK    2  A    between atoms: _3  and  _4
REMARK    3  A    between atoms: _3  and  _6
REMARK    4  A    between atoms: _6  and  _7
REMARK    5  A    between atoms: _12  and  _14
REMARK    6  A    between atoms: _14  and  _15
REMARK    7  A    between atoms: _14  and  _17
REMARK    8  A    between atoms: _17  and  _18
REMARK    9  A    between atoms: _28  and  _30
REMARK   10  A    between atoms: _30  and  _31
REMARK   11  A    between atoms: _30  and  _33
REMARK   12  A    between atoms: _33  and  _34
REMARK   13  A    between atoms: _39  and  _40
REMARK   14  A    between atoms: _42  and  _44
REMARK   15  A    between atoms: _44  and  _45
REMARK   16  A    between atoms: _44  and  _47
REMARK   17  A    between atoms: _47  and  _48
REMARK   18  A    between atoms: _54  and  _56
REMARK   19  A    between atoms: _56  and  _57
REMARK   20  A    between atoms: _56  and  _59
REMARK   21  A    between atoms: _59  and  _60
REMARK   22  A    between atoms: _63  and  _64
REMARK   23  A    between atoms: _69  and  _71
REMARK   24  A    between atoms: _71  and  _72
REMARK   25  A    between atoms: _71  and  _74
REMARK   26  A    between atoms: _74  and  _75
REMARK   27  A    between atoms: _80  and  _82
REMARK   28  A    between atoms: _82  and  _83
REMARK   29  A    between atoms: _82  and  _85
REMARK   30  A    between atoms: _85  and  _86
REMARK   31  A    between atoms: _91  and  _93
REMARK   32  A    between atoms: _93  and  _94
REMARK   33  A    between atoms: _97  and  _99
REMARK   34  A    between atoms: _99  and  _100
REMARK   35  A    between atoms: _99  and  _102
REMARK   36  A    between atoms: _102  and  _103
REMARK   37  A    between atoms: _108  and  _110
REMARK   38  A    between atoms: _110  and  _111
REMARK   39  A    between atoms: _110  and  _113
REMARK   40  A    between atoms: _113  and  _114
REMARK   41  A    between atoms: _117  and  _119
REMARK   42  A    between atoms: _119  and  _120
REMARK   43  A    between atoms: _119  and  _122
REMARK   44  A    between atoms: _122  and  _123
REMARK   45  A    between atoms: _123  and  _124
REMARK   46  A    between atoms: _129  and  _131
REMARK   47  A    between atoms: _131  and  _132
REMARK   48  A    between atoms: _131  and  _134
REMARK   49  A    between atoms: _134  and  _135
REMARK   50  A    between atoms: _141  and  _143
REMARK   51  A    between atoms: _154  and  _157
REMARK   52  A    between atoms: _157  and  _158
REMARK   53  A    between atoms: _166  and  _167
REMARK   54  A    between atoms: _175  and  _177
REMARK   55  A    between atoms: _177  and  _178
REMARK   56  A    between atoms: _177  and  _180
REMARK   57  A    between atoms: _180  and  _181
REMARK   58  A    between atoms: _181  and  _182
REMARK   59  A    between atoms: _185  and  _187
REMARK   60  A    between atoms: _187  and  _188
REMARK   61  A    between atoms: _187  and  _190
REMARK   62  A    between atoms: _190  and  _191
REMARK   63  A    between atoms: _196  and  _198
REMARK   64  A    between atoms: _198  and  _199
REMARK   65  A    between atoms: _198  and  _201
REMARK   66  A    between atoms: _201  and  _202
REMARK   67  A    between atoms: _202  and  _203
REMARK   68  A    between atoms: _206  and  _208
REMARK   69  A    between atoms: _208  and  _209
REMARK   70  A    between atoms: _208  and  _211
REMARK   71  A    between atoms: _211  and  _212
REMARK   72  A    between atoms: _215  and  _217
REMARK   73  A    between atoms: _217  and  _218
REMARK   74  A    between atoms: _217  and  _220
REMARK   75  A    between atoms: _220  and  _221
REMARK   76  A    between atoms: _222  and  ZN_460
REMARK   77  A    between atoms: _226  and  _228
REMARK   78  A    between atoms: _228  and  _229
REMARK   79  A    between atoms: _228  and  _231
REMARK   80  A    between atoms: _231  and  _232
REMARK   81  A    between atoms: _235  and  _237
REMARK   82  A    between atoms: _237  and  _238
REMARK   83  A    between atoms: _237  and  _240
REMARK   84  A    between atoms: _243  and  _245
REMARK   85  A    between atoms: _245  and  _246
REMARK   86  A    between atoms: _245  and  _248
REMARK   87  A    between atoms: _248  and  _249
REMARK   88  A    between atoms: _254  and  _256
REMARK   89  A    between atoms: _256  and  _257
REMARK   90  A    between atoms: _256  and  _259
REMARK   91  A    between atoms: _259  and  _260
REMARK   92  A    between atoms: _266  and  _268
REMARK   93  A    between atoms: _268  and  _269
REMARK   94  A    between atoms: _271  and  _273
REMARK   95  A    between atoms: _273  and  _274
REMARK   96  A    between atoms: _273  and  _276
REMARK   97  A    between atoms: _276  and  _277
REMARK   98  A    between atoms: _277  and  _278
REMARK   99  A    between atoms: _278  and  _279
REMARK  100  A    between atoms: _279  and  _280
REMARK  101  A    between atoms: _284  and  _286
REMARK  102  A    between atoms: _286  and  _287
REMARK  103  A    between atoms: _286  and  _289
REMARK  104  A    between atoms: _292  and  _294
REMARK  105  A    between atoms: _294  and  _295
REMARK  106  A    between atoms: _294  and  _297
REMARK  107  A    between atoms: _297  and  _298
REMARK  108  A    between atoms: _298  and  _299
REMARK  109  A    between atoms: _304  and  _306
REMARK  110  A    between atoms: _306  and  _307
REMARK  111  A    between atoms: _306  and  _309
REMARK  112  A    between atoms: _309  and  _310
REMARK  113  A    between atoms: _313  and  _315
REMARK  114  A    between atoms: _315  and  _316
REMARK  115  A    between atoms: _319  and  _321
REMARK  116  A    between atoms: _321  and  _322
REMARK  117  A    between atoms: _321  and  _324
REMARK  118  A    between atoms: _327  and  _329
REMARK  119  A    between atoms: _329  and  _330
REMARK  120  A    between atoms: _329  and  _332
REMARK  121  A    between atoms: _332  and  _333
REMARK  122  A    between atoms: _336  and  _338
REMARK  123  A    between atoms: _338  and  _339
REMARK  124  A    between atoms: _341  and  _343
REMARK  125  A    between atoms: _343  and  _344
REMARK  126  A    between atoms: _343  and  _346
REMARK  127  A    between atoms: _346  and  _347
REMARK  128  A    between atoms: _349  and  _351
REMARK  129  A    between atoms: _351  and  _352
REMARK  130  A    between atoms: _351  and  _354
REMARK  131  A    between atoms: _354  and  _355
REMARK  132  A    between atoms: _358  and  _360
REMARK  133  A    between atoms: _360  and  _361
REMARK  134  A    between atoms: _360  and  _363
REMARK  135  A    between atoms: _363  and  _364
REMARK  136  A    between atoms: _367  and  _369
REMARK  137  A    between atoms: _369  and  _370
REMARK  138  A    between atoms: _369  and  _372
REMARK  139  A    between atoms: _372  and  _373
REMARK  140  A    between atoms: _377  and  _378
REMARK  141  A    between atoms: _384  and  _385
REMARK  142  A    between atoms: _390  and  _392
REMARK  143  A    between atoms: _392  and  _393
REMARK  144  A    between atoms: _392  and  _395
REMARK  145  A    between atoms: _395  and  _396
REMARK  146  A    between atoms: _399  and  _401
REMARK  147  A    between atoms: _401  and  _402
REMARK  148  A    between atoms: _401  and  _404
REMARK  149  A    between atoms: _404  and  _405
REMARK  150  A    between atoms: _408  and  _410
REMARK  151  A    between atoms: _410  and  _411
REMARK  152  A    between atoms: _410  and  _413
REMARK  153  A    between atoms: _416  and  _418
REMARK  154  A    between atoms: _418  and  _419
REMARK  155  A    between atoms: _418  and  _421
REMARK  156  A    between atoms: _421  and  _422
REMARK  157  A    between atoms: _432  and  _434
REMARK  158  A    between atoms: _434  and  _435
REMARK  159  A    between atoms: _434  and  _437
REMARK  160  A    between atoms: _437  and  _438
REMARK  161  A    between atoms: _443  and  _445
REMARK  162  A    between atoms: _445  and  _446
REMARK  163  A    between atoms: _445  and  _448
REMARK  164  A    between atoms: _448  and  _449
REMARK  165  A    between atoms: _449  and  _450
REMARK  166  A    between atoms: _450  and  _451
REMARK                            x       y       z     vdW  Elec       q    Type
REMARK                         _______ _______ _______ _____ _____    ______ ____
ROOT
ATOM      1  CG  TRP A   1      -9.044  -0.429  24.617  0.00  0.00    -0.002 A 
ATOM      2  CD1 TRP A   1      -7.811   0.105  24.873  0.00  0.00    +0.068 A 
ATOM      3  NE1 TRP A   1      -7.017   0.020  23.754  0.00  0.00    -0.352 N 
ATOM      4  HE1 TRP A   1      -6.033   0.349  23.686  0.00  0.00    +0.166 HD
ATOM      5  CE2 TRP A   1      -7.731  -0.569  22.741  0.00  0.00    +0.056 A 
ATOM      6  CZ2 TRP A   1      -7.356  -0.876  21.421  0.00  0.00    +0.017 A 
ATOM      7  CH2 TRP A   1      -8.295  -1.479  20.617  0.00  0.00    +0.001 A 
ATOM      8  CZ3 TRP A   1      -9.584  -1.782  21.091  0.00  0.00    +0.000 A 
ATOM      9  CE3 TRP A   1      -9.960  -1.477  22.404  0.00  0.00    +0.001 A 
ATOM     10  CD2 TRP A   1      -9.020  -0.861  23.248  0.00  0.00    +0.013 A 
ENDROOT
BRANCH   1  11
ATOM     11  CB  TRP A   1     -10.172  -0.606  25.580  0.00  0.00    +0.053 C 
BRANCH  11  12
ATOM     12  CA  TRP A   1     -11.203   0.515  25.502  0.00  0.00    +0.137 C 
BRANCH  12  13
ATOM     13  N   TRP A   1     -10.734   1.686  26.206  0.00  0.00    -0.239 NA
ATOM     14  H   TRP A   1     -10.154   1.573  27.061  0.00  0.00    +0.142 HD
ENDBRANCH  12  13
BRANCH  12  15
ATOM     15  C   TRP A   1     -12.562   0.035  26.005  0.00  0.00    +0.224 C 
ATOM     16  O   TRP A   1     -12.803  -0.027  27.214  0.00  0.00    -0.287 OA
ENDBRANCH  12  15
ENDBRANCH  11  12
ENDBRANCH   1  11
TORSDOF 4
REMARK  Name = ../refined-set-2016/1if8/1if8_pocket.pdb
REMARK  166 active torsions:
REMARK  status: ('A' for Active; 'I' for Inactive)
REMARK    1  A    between atoms: _1  and  _3
REMARK    2  A    between atoms: _3  and  _4
REMARK    3  A    between atoms: _3  and  _6
REMARK    4  A    between atoms: _6  and  _7
REMARK    5  A    between atoms: _12  and  _14
REMARK    6  A    between atoms: _14  and  _15
REMARK    7  A    between atoms: _14  and  _17
REMARK    8  A    between atoms: _17  and  _18
REMARK    9  A    between atoms: _28  and  _30
REMARK   10  A    between atoms: _30  and  _31
REMARK   11  A    between atoms: _30  and  _33
REMARK   12  A    between atoms: _33  and  _34
REMARK   13  A    between atoms: _39  and  _40
REMARK   14  A    between atoms: _42  and  _44
REMARK   15  A    between atoms: _44  and  _45
REMARK   16  A    between atoms: _44  and  _47
REMARK   17  A    between atoms: _47  and  _48
REMARK   18  A    between atoms: _54  and  _56
REMARK   19  A    between atoms: _56  and  _57
REMARK   20  A    between atoms: _56  and  _59
REMARK   21  A    between atoms: _59  and  _60
REMARK   22  A    between atoms: _63  and  _64
REMARK   23  A    between atoms: _69  and  _71
REMARK   24  A    between atoms: _71  and  _72
REMARK   25  A    between atoms: _71  and  _74
REMARK   26  A    between atoms: _74  and  _75
REMARK   27  A    between atoms: _80  and  _82
REMARK   28  A    between atoms: _82  and  _83
REMARK   29  A    between atoms: _82  and  _85
REMARK   30  A    between atoms: _85  and  _86
REMARK   31  A    between atoms: _91  and  _93
REMARK   32  A    between atoms: _93  and  _94
REMARK   33  A    between atoms: _97  and  _99
REMARK   34  A    between atoms: _99  and  _100
REMARK   35  A    between atoms: _99  and  _102
REMARK   36  A    between atoms: _102  and  _103
REMARK   37  A    between atoms: _108  and  _110
REMARK   38  A    between atoms: _110  and  _111
REMARK   39  A    between atoms: _110  and  _113
REMARK   40  A    between atoms: _113  and  _114
REMARK   41  A    between atoms: _117  and  _119
REMARK   42  A    between atoms: _119  and  _120
REMARK   43  A    between atoms: _119  and  _122
REMARK   44  A    between atoms: _122  and  _123
REMARK   45  A    between atoms: _123  and  _124
REMARK   46  A    between atoms: _129  and  _131
REMARK   47  A    between atoms: _131  and  _132
REMARK   48  A    between atoms: _131  and  _134
REMARK   49  A    between atoms: _134  and  _135
REMARK   50  A    between atoms: _141  and  _143
REMARK   51  A    between atoms: _154  and  _157
REMARK   52  A    between atoms: _157  and  _158
REMARK   53  A    between atoms: _166  and  _167
REMARK   54  A    between atoms: _175  and  _177
REMARK   55  A    between atoms: _177  and  _178
REMARK   56  A    between atoms: _177  and  _180
REMARK   57  A    between atoms: _180  and  _181
REMARK   58  A    between atoms: _181  and  _182
REMARK   59  A    between atoms: _185  and  _187
REMARK   60  A    between atoms: _187  and  _188
REMARK   61  A    between atoms: _187  and  _190
REMARK   62  A    between atoms: _190  and  _191
REMARK   63  A    between atoms: _196  and  _198
REMARK   64  A    between atoms: _198  and  _199
REMARK   65  A    between atoms: _198  and  _201
REMARK   66  A    between atoms: _201  and  _202
REMARK   67  A    between atoms: _202  and  _203
REMARK   68  A    between atoms: _206  and  _208
REMARK   69  A    between atoms: _208  and  _209
REMARK   70  A    between atoms: _208  and  _211
REMARK   71  A    between atoms: _211  and  _212
REMARK   72  A    between atoms: _215  and  _217
REMARK   73  A    between atoms: _217  and  _218
REMARK   74  A    between atoms: _217  and  _220
REMARK   75  A    between atoms: _220  and  _221
REMARK   76  A    between atoms: _222  and  ZN_460
REMARK   77  A    between atoms: _226  and  _228
REMARK   78  A    between atoms: _228  and  _229
REMARK   79  A    between atoms: _228  and  _231
REMARK   80  A    between atoms: _231  and  _232
REMARK   81  A    between atoms: _235  and  _237
REMARK   82  A    between atoms: _237  and  _238
REMARK   83  A    between atoms: _237  and  _240
REMARK   84  A    between atoms: _243  and  _245
REMARK   85  A    between atoms: _245  and  _246
REMARK   86  A    between atoms: _245  and  _248
REMARK   87  A    between atoms: _248  and  _249
REMARK   88  A    between atoms: _254  and  _256
REMARK   89  A    between atoms: _256  and  _257
REMARK   90  A    between atoms: _256  and  _259
REMARK   91  A    between atoms: _259  and  _260
REMARK   92  A    between atoms: _266  and  _268
REMARK   93  A    between atoms: _268  and  _269
REMARK   94  A    between atoms: _271  and  _273
REMARK   95  A    between atoms: _273  and  _274
REMARK   96  A    between atoms: _273  and  _276
REMARK   97  A    between atoms: _276  and  _277
REMARK   98  A    between atoms: _277  and  _278
REMARK   99  A    between atoms: _278  and  _279
REMARK  100  A    between atoms: _279  and  _280
REMARK  101  A    between atoms: _284  and  _286
REMARK  102  A    between atoms: _286  and  _287
REMARK  103  A    between atoms: _286  and  _289
REMARK  104  A    between atoms: _292  and  _294
REMARK  105  A    between atoms: _294  and  _295
REMARK  106  A    between atoms: _294  and  _297
REMARK  107  A    between atoms: _297  and  _298
REMARK  108  A    between atoms: _298  and  _299
REMARK  109  A    between atoms: _304  and  _306
REMARK  110  A    between atoms: _306  and  _307
REMARK  111  A    between atoms: _306  and  _309
REMARK  112  A    between atoms: _309  and  _310
REMARK  113  A    between atoms: _313  and  _315
REMARK  114  A    between atoms: _315  and  _316
REMARK  115  A    between atoms: _319  and  _321
REMARK  116  A    between atoms: _321  and  _322
REMARK  117  A    between atoms: _321  and  _324
REMARK  118  A    between atoms: _327  and  _329
REMARK  119  A    between atoms: _329  and  _330
REMARK  120  A    between atoms: _329  and  _332
REMARK  121  A    between atoms: _332  and  _333
REMARK  122  A    between atoms: _336  and  _338
REMARK  123  A    between atoms: _338  and  _339
REMARK  124  A    between atoms: _341  and  _343
REMARK  125  A    between atoms: _343  and  _344
REMARK  126  A    between atoms: _343  and  _346
REMARK  127  A    between atoms: _346  and  _347
REMARK  128  A    between atoms: _349  and  _351
REMARK  129  A    between atoms: _351  and  _352
REMARK  130  A    between atoms: _351  and  _354
REMARK  131  A    between atoms: _354  and  _355
REMARK  132  A    between atoms: _358  and  _360
REMARK  133  A    between atoms: _360  and  _361
REMARK  134  A    between atoms: _360  and  _363
REMARK  135  A    between atoms: _363  and  _364
REMARK  136  A    between atoms: _367  and  _369
REMARK  137  A    between atoms: _369  and  _370
REMARK  138  A    between atoms: _369  and  _372
REMARK  139  A    between atoms: _372  and  _373
REMARK  140  A    between atoms: _377  and  _378
REMARK  141  A    between atoms: _384  and  _385
REMARK  142  A    between atoms: _390  and  _392
REMARK  143  A    between atoms: _392  and  _393
REMARK  144  A    between atoms: _392  and  _395
REMARK  145  A    between atoms: _395  and  _396
REMARK  146  A    between atoms: _399  and  _401
REMARK  147  A    between atoms: _401  and  _402
REMARK  148  A    between atoms: _401  and  _404
REMARK  149  A    between atoms: _404  and  _405
REMARK  150  A    between atoms: _408  and  _410
REMARK  151  A    between atoms: _410  and  _411
REMARK  152  A    between atoms: _410  and  _413
REMARK  153  A    between atoms: _416  and  _418
REMARK  154  A    between atoms: _418  and  _419
REMARK  155  A    between atoms: _418  and  _421
REMARK  156  A    between atoms: _421  and  _422
REMARK  157  A    between atoms: _432  and  _434
REMARK  158  A    between atoms: _434  and  _435
REMARK  159  A    between atoms: _434  and  _437
REMARK  160  A    between atoms: _437  and  _438
REMARK  161  A    between atoms: _443  and  _445
REMARK  162  A    between atoms: _445  and  _446
REMARK  163  A    between atoms: _445  and  _448
REMARK  164  A    between atoms: _448  and  _449
REMARK  165  A    between atoms: _449  and  _450
REMARK  166  A    between atoms: _450  and  _451
REMARK                            x       y       z     vdW  Elec       q    Type
REMARK                         _______ _______ _______ _____ _____    ______ ____
ROOT
ATOM      1  CB  ASN A   1      -2.229  -7.758  10.772  0.00  0.00    +0.110 C 
ENDROOT
BRANCH   1   2
ATOM      2  CG  ASN A   1      -3.711  -7.990  10.574  0.00  0.00    +0.221 C 
ATOM      3  OD1 ASN A   1      -4.262  -8.967  11.083  0.00  0.00    -0.275 OA
ATOM      4  ND2 ASN A   1      -4.360  -7.117   9.809  0.00  0.00    -0.329 N 
ATOM      5 HD21 ASN A   1      -5.375  -7.245   9.620  0.00  0.00    +0.145 HD
ATOM      6 HD22 ASN A   1      -3.853  -6.306   9.400  0.00  0.00    +0.145 HD
ENDBRANCH   1   2
BRANCH   1   7
ATOM      7  CA  ASN A   1      -1.626  -8.683  11.838  0.00  0.00    +0.142 C 
BRANCH   7   8
ATOM      8  N   ASN A   1      -1.985 -10.080  11.583  0.00  0.00    -0.239 NA
ATOM      9  H   ASN A   1      -2.874 -10.289  11.086  0.00  0.00    +0.142 HD
ENDBRANCH   7   8
BRANCH   7  10
ATOM     10  C   ASN A   1      -2.168  -8.290  13.217  0.00  0.00    +0.225 C 
ATOM     11  O   ASN A   1      -2.938  -7.331  13.344  0.00  0.00    -0.287 OA
ENDBRANCH   7  10
ENDBRANCH   1   7
TORSDOF 4
REMARK  Name = ../refined-set-2016/1if8/1if8_pocket.pdb
REMARK  166 active torsions:
REMARK  status: ('A' for Active; 'I' for Inactive)
REMARK    1  A    between atoms: _1  and  _3
REMARK    2  A    between atoms: _3  and  _4
REMARK    3  A    between atoms: _3  and  _6
REMARK    4  A    between atoms: _6  and  _7
REMARK    5  A    between atoms: _12  and  _14
REMARK    6  A    between atoms: _14  and  _15
REMARK    7  A    between atoms: _14  and  _17
REMARK    8  A    between atoms: _17  and  _18
REMARK    9  A    between atoms: _28  and  _30
REMARK   10  A    between atoms: _30  and  _31
REMARK   11  A    between atoms: _30  and  _33
REMARK   12  A    between atoms: _33  and  _34
REMARK   13  A    between atoms: _39  and  _40
REMARK   14  A    between atoms: _42  and  _44
REMARK   15  A    between atoms: _44  and  _45
REMARK   16  A    between atoms: _44  and  _47
REMARK   17  A    between atoms: _47  and  _48
REMARK   18  A    between atoms: _54  and  _56
REMARK   19  A    between atoms: _56  and  _57
REMARK   20  A    between atoms: _56  and  _59
REMARK   21  A    between atoms: _59  and  _60
REMARK   22  A    between atoms: _63  and  _64
REMARK   23  A    between atoms: _69  and  _71
REMARK   24  A    between atoms: _71  and  _72
REMARK   25  A    between atoms: _71  and  _74
REMARK   26  A    between atoms: _74  and  _75
REMARK   27  A    between atoms: _80  and  _82
REMARK   28  A    between atoms: _82  and  _83
REMARK   29  A    between atoms: _82  and  _85
REMARK   30  A    between atoms: _85  and  _86
REMARK   31  A    between atoms: _91  and  _93
REMARK   32  A    between atoms: _93  and  _94
REMARK   33  A    between atoms: _97  and  _99
REMARK   34  A    between atoms: _99  and  _100
REMARK   35  A    between atoms: _99  and  _102
REMARK   36  A    between atoms: _102  and  _103
REMARK   37  A    between atoms: _108  and  _110
REMARK   38  A    between atoms: _110  and  _111
REMARK   39  A    between atoms: _110  and  _113
REMARK   40  A    between atoms: _113  and  _114
REMARK   41  A    between atoms: _117  and  _119
REMARK   42  A    between atoms: _119  and  _120
REMARK   43  A    between atoms: _119  and  _122
REMARK   44  A    between atoms: _122  and  _123
REMARK   45  A    between atoms: _123  and  _124
REMARK   46  A    between atoms: _129  and  _131
REMARK   47  A    between atoms: _131  and  _132
REMARK   48  A    between atoms: _131  and  _134
REMARK   49  A    between atoms: _134  and  _135
REMARK   50  A    between atoms: _141  and  _143
REMARK   51  A    between atoms: _154  and  _157
REMARK   52  A    between atoms: _157  and  _158
REMARK   53  A    between atoms: _166  and  _167
REMARK   54  A    between atoms: _175  and  _177
REMARK   55  A    between atoms: _177  and  _178
REMARK   56  A    between atoms: _177  and  _180
REMARK   57  A    between atoms: _180  and  _181
REMARK   58  A    between atoms: _181  and  _182
REMARK   59  A    between atoms: _185  and  _187
REMARK   60  A    between atoms: _187  and  _188
REMARK   61  A    between atoms: _187  and  _190
REMARK   62  A    between atoms: _190  and  _191
REMARK   63  A    between atoms: _196  and  _198
REMARK   64  A    between atoms: _198  and  _199
REMARK   65  A    between atoms: _198  and  _201
REMARK   66  A    between atoms: _201  and  _202
REMARK   67  A    between atoms: _202  and  _203
REMARK   68  A    between atoms: _206  and  _208
REMARK   69  A    between atoms: _208  and  _209
REMARK   70  A    between atoms: _208  and  _211
REMARK   71  A    between atoms: _211  and  _212
REMARK   72  A    between atoms: _215  and  _217
REMARK   73  A    between atoms: _217  and  _218
REMARK   74  A    between atoms: _217  and  _220
REMARK   75  A    between atoms: _220  and  _221
REMARK   76  A    between atoms: _222  and  ZN_460
REMARK   77  A    between atoms: _226  and  _228
REMARK   78  A    between atoms: _228  and  _229
REMARK   79  A    between atoms: _228  and  _231
REMARK   80  A    between atoms: _231  and  _232
REMARK   81  A    between atoms: _235  and  _237
REMARK   82  A    between atoms: _237  and  _238
REMARK   83  A    between atoms: _237  and  _240
REMARK   84  A    between atoms: _243  and  _245
REMARK   85  A    between atoms: _245  and  _246
REMARK   86  A    between atoms: _245  and  _248
REMARK   87  A    between atoms: _248  and  _249
REMARK   88  A    between atoms: _254  and  _256
REMARK   89  A    between atoms: _256  and  _257
REMARK   90  A    between atoms: _256  and  _259
REMARK   91  A    between atoms: _259  and  _260
REMARK   92  A    between atoms: _266  and  _268
REMARK   93  A    between atoms: _268  and  _269
REMARK   94  A    between atoms: _271  and  _273
REMARK   95  A    between atoms: _273  and  _274
REMARK   96  A    between atoms: _273  and  _276
REMARK   97  A    between atoms: _276  and  _277
REMARK   98  A    between atoms: _277  and  _278
REMARK   99  A    between atoms: _278  and  _279
REMARK  100  A    between atoms: _279  and  _280
REMARK  101  A    between atoms: _284  and  _286
REMARK  102  A    between atoms: _286  and  _287
REMARK  103  A    between atoms: _286  and  _289
REMARK  104  A    between atoms: _292  and  _294
REMARK  105  A    between atoms: _294  and  _295
REMARK  106  A    between atoms: _294  and  _297
REMARK  107  A    between atoms: _297  and  _298
REMARK  108  A    between atoms: _298  and  _299
REMARK  109  A    between atoms: _304  and  _306
REMARK  110  A    between atoms: _306  and  _307
REMARK  111  A    between atoms: _306  and  _309
REMARK  112  A    between atoms: _309  and  _310
REMARK  113  A    between atoms: _313  and  _315
REMARK  114  A    between atoms: _315  and  _316
REMARK  115  A    between atoms: _319  and  _321
REMARK  116  A    between atoms: _321  and  _322
REMARK  117  A    between atoms: _321  and  _324
REMARK  118  A    between atoms: _327  and  _329
REMARK  119  A    between atoms: _329  and  _330
REMARK  120  A    between atoms: _329  and  _332
REMARK  121  A    between atoms: _332  and  _333
REMARK  122  A    between atoms: _336  and  _338
REMARK  123  A    between atoms: _338  and  _339
REMARK  124  A    between atoms: _341  and  _343
REMARK  125  A    between atoms: _343  and  _344
REMARK  126  A    between atoms: _343  and  _346
REMARK  127  A    between atoms: _346  and  _347
REMARK  128  A    between atoms: _349  and  _351
REMARK  129  A    between atoms: _351  and  _352
REMARK  130  A    between atoms: _351  and  _354
REMARK  131  A    between atoms: _354  and  _355
REMARK  132  A    between atoms: _358  and  _360
REMARK  133  A    between atoms: _360  and  _361
REMARK  134  A    between atoms: _360  and  _363
REMARK  135  A    between atoms: _363  and  _364
REMARK  136  A    between atoms: _367  and  _369
REMARK  137  A    between atoms: _369  and  _370
REMARK  138  A    between atoms: _369  and  _372
REMARK  139  A    between atoms: _372  and  _373
REMARK  140  A    between atoms: _377  and  _378
REMARK  141  A    between atoms: _384  and  _385
REMARK  142  A    between atoms: _390  and  _392
REMARK  143  A    between atoms: _392  and  _393
REMARK  144  A    between atoms: _392  and  _395
REMARK  145  A    between atoms: _395  and  _396
REMARK  146  A    between atoms: _399  and  _401
REMARK  147  A    between atoms: _401  and  _402
REMARK  148  A    between atoms: _401  and  _404
REMARK  149  A    between atoms: _404  and  _405
REMARK  150  A    between atoms: _408  and  _410
REMARK  151  A    between atoms: _410  and  _411
REMARK  152  A    between atoms: _410  and  _413
REMARK  153  A    between atoms: _416  and  _418
REMARK  154  A    between atoms: _418  and  _419
REMARK  155  A    between atoms: _418  and  _421
REMARK  156  A    between atoms: _421  and  _422
REMARK  157  A    between atoms: _432  and  _434
REMARK  158  A    between atoms: _434  and  _435
REMARK  159  A    between atoms: _434  and  _437
REMARK  160  A    between atoms: _437  and  _438
REMARK  161  A    between atoms: _443  and  _445
REMARK  162  A    between atoms: _445  and  _446
REMARK  163  A    between atoms: _445  and  _448
REMARK  164  A    between atoms: _448  and  _449
REMARK  165  A    between atoms: _449  and  _450
REMARK  166  A    between atoms: _450  and  _451
REMARK                            x       y       z     vdW  Elec       q    Type
REMARK                         _______ _______ _______ _____ _____    ______ ____
ROOT
ATOM      1  NE  ARG A   1       2.112  -4.389  21.476  0.00  0.00    +0.330 N 
ATOM      2  CZ  ARG A   1       2.186  -3.434  22.404  0.00  0.00    +0.000 C 
ATOM      3  NH2 ARG A   1       3.352  -3.183  22.984  0.00  0.00    +0.330 N 
ATOM      4 HH21 ARG A   1       3.423  -2.441  23.709  0.00  0.00    +0.000 HD
ATOM      5 HH22 ARG A   1       4.195  -3.728  22.714  0.00  0.00    +0.000 HD
ATOM      6  NH1 ARG A   1       1.135  -2.677  22.701  0.00  0.00    +0.330 N 
ATOM      7 HH11 ARG A   1       1.215  -1.938  23.428  0.00  0.00    +0.000 HD
ATOM      8 HH12 ARG A   1       0.232  -2.824  22.206  0.00  0.00    +0.000 HD
ATOM      9  HE  ARG A   1       2.968  -4.953  21.299  0.00  0.00    +0.000 HD
ENDROOT
BRANCH   1  10
ATOM     10  CD  ARG A   1       0.924  -4.705  20.690  0.00  0.00    +0.000 C 
BRANCH  10  11
ATOM     11  CG  ARG A   1       0.939  -6.147  20.253  0.00  0.00    +0.000 C 
BRANCH  11  12
ATOM     12  CB  ARG A   1      -0.161  -6.414  19.242  0.00  0.00    +0.000 C 
BRANCH  12  13
ATOM     13  CA  ARG A   1      -0.221  -7.859  18.753  0.00  0.00    +0.000 C 
BRANCH  13  14
ATOM     14  N   ARG A   1      -1.198  -7.980  17.684  0.00  0.00    +0.000 NA
ATOM     15  H   ARG A   1      -2.069  -7.416  17.749  0.00  0.00    +0.000 HD
ENDBRANCH  13  14
BRANCH  13  16
ATOM     16  C   ARG A   1      -0.586  -8.767  19.926  0.00  0.00    +0.000 C 
ATOM     17  O   ARG A   1      -1.770  -8.970  20.245  0.00  0.00    +0.000 OA
ENDBRANCH  13  16
ENDBRANCH  12  13
ENDBRANCH  11  12
ENDBRANCH  10  11
ENDBRANCH   1  10
TORSDOF 6
REMARK  Name = ../refined-set-2016/1if8/1if8_pocket.pdb
REMARK  166 active torsions:
REMARK  status: ('A' for Active; 'I' for Inactive)
REMARK    1  A    between atoms: _1  and  _3
REMARK    2  A    between atoms: _3  and  _4
REMARK    3  A    between atoms: _3  and  _6
REMARK    4  A    between atoms: _6  and  _7
REMARK    5  A    between atoms: _12  and  _14
REMARK    6  A    between atoms: _14  and  _15
REMARK    7  A    between atoms: _14  and  _17
REMARK    8  A    between atoms: _17  and  _18
REMARK    9  A    between atoms: _28  and  _30
REMARK   10  A    between atoms: _30  and  _31
REMARK   11  A    between atoms: _30  and  _33
REMARK   12  A    between atoms: _33  and  _34
REMARK   13  A    between atoms: _39  and  _40
REMARK   14  A    between atoms: _42  and  _44
REMARK   15  A    between atoms: _44  and  _45
REMARK   16  A    between atoms: _44  and  _47
REMARK   17  A    between atoms: _47  and  _48
REMARK   18  A    between atoms: _54  and  _56
REMARK   19  A    between atoms: _56  and  _57
REMARK   20  A    between atoms: _56  and  _59
REMARK   21  A    between atoms: _59  and  _60
REMARK   22  A    between atoms: _63  and  _64
REMARK   23  A    between atoms: _69  and  _71
REMARK   24  A    between atoms: _71  and  _72
REMARK   25  A    between atoms: _71  and  _74
REMARK   26  A    between atoms: _74  and  _75
REMARK   27  A    between atoms: _80  and  _82
REMARK   28  A    between atoms: _82  and  _83
REMARK   29  A    between atoms: _82  and  _85
REMARK   30  A    between atoms: _85  and  _86
REMARK   31  A    between atoms: _91  and  _93
REMARK   32  A    between atoms: _93  and  _94
REMARK   33  A    between atoms: _97  and  _99
REMARK   34  A    between atoms: _99  and  _100
REMARK   35  A    between atoms: _99  and  _102
REMARK   36  A    between atoms: _102  and  _103
REMARK   37  A    between atoms: _108  and  _110
REMARK   38  A    between atoms: _110  and  _111
REMARK   39  A    between atoms: _110  and  _113
REMARK   40  A    between atoms: _113  and  _114
REMARK   41  A    between atoms: _117  and  _119
REMARK   42  A    between atoms: _119  and  _120
REMARK   43  A    between atoms: _119  and  _122
REMARK   44  A    between atoms: _122  and  _123
REMARK   45  A    between atoms: _123  and  _124
REMARK   46  A    between atoms: _129  and  _131
REMARK   47  A    between atoms: _131  and  _132
REMARK   48  A    between atoms: _131  and  _134
REMARK   49  A    between atoms: _134  and  _135
REMARK   50  A    between atoms: _141  and  _143
REMARK   51  A    between atoms: _154  and  _157
REMARK   52  A    between atoms: _157  and  _158
REMARK   53  A    between atoms: _166  and  _167
REMARK   54  A    between atoms: _175  and  _177
REMARK   55  A    between atoms: _177  and  _178
REMARK   56  A    between atoms: _177  and  _180
REMARK   57  A    between atoms: _180  and  _181
REMARK   58  A    between atoms: _181  and  _182
REMARK   59  A    between atoms: _185  and  _187
REMARK   60  A    between atoms: _187  and  _188
REMARK   61  A    between atoms: _187  and  _190
REMARK   62  A    between atoms: _190  and  _191
REMARK   63  A    between atoms: _196  and  _198
REMARK   64  A    between atoms: _198  and  _199
REMARK   65  A    between atoms: _198  and  _201
REMARK   66  A    between atoms: _201  and  _202
REMARK   67  A    between atoms: _202  and  _203
REMARK   68  A    between atoms: _206  and  _208
REMARK   69  A    between atoms: _208  and  _209
REMARK   70  A    between atoms: _208  and  _211
REMARK   71  A    between atoms: _211  and  _212
REMARK   72  A    between atoms: _215  and  _217
REMARK   73  A    between atoms: _217  and  _218
REMARK   74  A    between atoms: _217  and  _220
REMARK   75  A    between atoms: _220  and  _221
REMARK   76  A    between atoms: _222  and  ZN_460
REMARK   77  A    between atoms: _226  and  _228
REMARK   78  A    between atoms: _228  and  _229
REMARK   79  A    between atoms: _228  and  _231
REMARK   80  A    between atoms: _231  and  _232
REMARK   81  A    between atoms: _235  and  _237
REMARK   82  A    between atoms: _237  and  _238
REMARK   83  A    between atoms: _237  and  _240
REMARK   84  A    between atoms: _243  and  _245
REMARK   85  A    between atoms: _245  and  _246
REMARK   86  A    between atoms: _245  and  _248
REMARK   87  A    between atoms: _248  and  _249
REMARK   88  A    between atoms: _254  and  _256
REMARK   89  A    between atoms: _256  and  _257
REMARK   90  A    between atoms: _256  and  _259
REMARK   91  A    between atoms: _259  and  _260
REMARK   92  A    between atoms: _266  and  _268
REMARK   93  A    between atoms: _268  and  _269
REMARK   94  A    between atoms: _271  and  _273
REMARK   95  A    between atoms: _273  and  _274
REMARK   96  A    between atoms: _273  and  _276
REMARK   97  A    between atoms: _276  and  _277
REMARK   98  A    between atoms: _277  and  _278
REMARK   99  A    between atoms: _278  and  _279
REMARK  100  A    between atoms: _279  and  _280
REMARK  101  A    between atoms: _284  and  _286
REMARK  102  A    between atoms: _286  and  _287
REMARK  103  A    between atoms: _286  and  _289
REMARK  104  A    between atoms: _292  and  _294
REMARK  105  A    between atoms: _294  and  _295
REMARK  106  A    between atoms: _294  and  _297
REMARK  107  A    between atoms: _297  and  _298
REMARK  108  A    between atoms: _298  and  _299
REMARK  109  A    between atoms: _304  and  _306
REMARK  110  A    between atoms: _306  and  _307
REMARK  111  A    between atoms: _306  and  _309
REMARK  112  A    between atoms: _309  and  _310
REMARK  113  A    between atoms: _313  and  _315
REMARK  114  A    between atoms: _315  and  _316
REMARK  115  A    between atoms: _319  and  _321
REMARK  116  A    between atoms: _321  and  _322
REMARK  117  A    between atoms: _321  and  _324
REMARK  118  A    between atoms: _327  and  _329
REMARK  119  A    between atoms: _329  and  _330
REMARK  120  A    between atoms: _329  and  _332
REMARK  121  A    between atoms: _332  and  _333
REMARK  122  A    between atoms: _336  and  _338
REMARK  123  A    between atoms: _338  and  _339
REMARK  124  A    between atoms: _341  and  _343
REMARK  125  A    between atoms: _343  and  _344
REMARK  126  A    between atoms: _343  and  _346
REMARK  127  A    between atoms: _346  and  _347
REMARK  128  A    between atoms: _349  and  _351
REMARK  129  A    between atoms: _351  and  _352
REMARK  130  A    between atoms: _351  and  _354
REMARK  131  A    between atoms: _354  and  _355
REMARK  132  A    between atoms: _358  and  _360
REMARK  133  A    between atoms: _360  and  _361
REMARK  134  A    between atoms: _360  and  _363
REMARK  135  A    between atoms: _363  and  _364
REMARK  136  A    between atoms: _367  and  _369
REMARK  137  A    between atoms: _369  and  _370
REMARK  138  A    between atoms: _369  and  _372
REMARK  139  A    between atoms: _372  and  _373
REMARK  140  A    between atoms: _377  and  _378
REMARK  141  A    between atoms: _384  and  _385
REMARK  142  A    between atoms: _390  and  _392
REMARK  143  A    between atoms: _392  and  _393
REMARK  144  A    between atoms: _392  and  _395
REMARK  145  A    between atoms: _395  and  _396
REMARK  146  A    between atoms: _399  and  _401
REMARK  147  A    between atoms: _401  and  _402
REMARK  148  A    between atoms: _401  and  _404
REMARK  149  A    between atoms: _404  and  _405
REMARK  150  A    between atoms: _408  and  _410
REMARK  151  A    between atoms: _410  and  _411
REMARK  152  A    between atoms: _410  and  _413
REMARK  153  A    between atoms: _416  and  _418
REMARK  154  A    between atoms: _418  and  _419
REMARK  155  A    between atoms: _418  and  _421
REMARK  156  A    between atoms: _421  and  _422
REMARK  157  A    between atoms: _432  and  _434
REMARK  158  A    between atoms: _434  and  _435
REMARK  159  A    between atoms: _434  and  _437
REMARK  160  A    between atoms: _437  and  _438
REMARK  161  A    between atoms: _443  and  _445
REMARK  162  A    between atoms: _445  and  _446
REMARK  163  A    between atoms: _445  and  _448
REMARK  164  A    between atoms: _448  and  _449
REMARK  165  A    between atoms: _449  and  _450
REMARK  166  A    between atoms: _450  and  _451
REMARK                            x       y       z     vdW  Elec       q    Type
REMARK                         _______ _______ _______ _____ _____    ______ ____
ROOT
ATOM      1  O   HOH     1      -3.329   7.113  21.703  0.00  0.00    +0.000 OA
ENDROOT
TORSDOF 0
REMARK  Name = ../refined-set-2016/1if8/1if8_pocket.pdb
REMARK  166 active torsions:
REMARK  status: ('A' for Active; 'I' for Inactive)
REMARK    1  A    between atoms: _1  and  _3
REMARK    2  A    between atoms: _3  and  _4
REMARK    3  A    between atoms: _3  and  _6
REMARK    4  A    between atoms: _6  and  _7
REMARK    5  A    between atoms: _12  and  _14
REMARK    6  A    between atoms: _14  and  _15
REMARK    7  A    between atoms: _14  and  _17
REMARK    8  A    between atoms: _17  and  _18
REMARK    9  A    between atoms: _28  and  _30
REMARK   10  A    between atoms: _30  and  _31
REMARK   11  A    between atoms: _30  and  _33
REMARK   12  A    between atoms: _33  and  _34
REMARK   13  A    between atoms: _39  and  _40
REMARK   14  A    between atoms: _42  and  _44
REMARK   15  A    between atoms: _44  and  _45
REMARK   16  A    between atoms: _44  and  _47
REMARK   17  A    between atoms: _47  and  _48
REMARK   18  A    between atoms: _54  and  _56
REMARK   19  A    between atoms: _56  and  _57
REMARK   20  A    between atoms: _56  and  _59
REMARK   21  A    between atoms: _59  and  _60
REMARK   22  A    between atoms: _63  and  _64
REMARK   23  A    between atoms: _69  and  _71
REMARK   24  A    between atoms: _71  and  _72
REMARK   25  A    between atoms: _71  and  _74
REMARK   26  A    between atoms: _74  and  _75
REMARK   27  A    between atoms: _80  and  _82
REMARK   28  A    between atoms: _82  and  _83
REMARK   29  A    between atoms: _82  and  _85
REMARK   30  A    between atoms: _85  and  _86
REMARK   31  A    between atoms: _91  and  _93
REMARK   32  A    between atoms: _93  and  _94
REMARK   33  A    between atoms: _97  and  _99
REMARK   34  A    between atoms: _99  and  _100
REMARK   35  A    between atoms: _99  and  _102
REMARK   36  A    between atoms: _102  and  _103
REMARK   37  A    between atoms: _108  and  _110
REMARK   38  A    between atoms: _110  and  _111
REMARK   39  A    between atoms: _110  and  _113
REMARK   40  A    between atoms: _113  and  _114
REMARK   41  A    between atoms: _117  and  _119
REMARK   42  A    between atoms: _119  and  _120
REMARK   43  A    between atoms: _119  and  _122
REMARK   44  A    between atoms: _122  and  _123
REMARK   45  A    between atoms: _123  and  _124
REMARK   46  A    between atoms: _129  and  _131
REMARK   47  A    between atoms: _131  and  _132
REMARK   48  A    between atoms: _131  and  _134
REMARK   49  A    between atoms: _134  and  _135
REMARK   50  A    between atoms: _141  and  _143
REMARK   51  A    between atoms: _154  and  _157
REMARK   52  A    between atoms: _157  and  _158
REMARK   53  A    between atoms: _166  and  _167
REMARK   54  A    between atoms: _175  and  _177
REMARK   55  A    between atoms: _177  and  _178
REMARK   56  A    between atoms: _177  and  _180
REMARK   57  A    between atoms: _180  and  _181
REMARK   58  A    between atoms: _181  and  _182
REMARK   59  A    between atoms: _185  and  _187
REMARK   60  A    between atoms: _187  and  _188
REMARK   61  A    between atoms: _187  and  _190
REMARK   62  A    between atoms: _190  and  _191
REMARK   63  A    between atoms: _196  and  _198
REMARK   64  A    between atoms: _198  and  _199
REMARK   65  A    between atoms: _198  and  _201
REMARK   66  A    between atoms: _201  and  _202
REMARK   67  A    between atoms: _202  and  _203
REMARK   68  A    between atoms: _206  and  _208
REMARK   69  A    between atoms: _208  and  _209
REMARK   70  A    between atoms: _208  and  _211
REMARK   71  A    between atoms: _211  and  _212
REMARK   72  A    between atoms: _215  and  _217
REMARK   73  A    between atoms: _217  and  _218
REMARK   74  A    between atoms: _217  and  _220
REMARK   75  A    between atoms: _220  and  _221
REMARK   76  A    between atoms: _222  and  ZN_460
REMARK   77  A    between atoms: _226  and  _228
REMARK   78  A    between atoms: _228  and  _229
REMARK   79  A    between atoms: _228  and  _231
REMARK   80  A    between atoms: _231  and  _232
REMARK   81  A    between atoms: _235  and  _237
REMARK   82  A    between atoms: _237  and  _238
REMARK   83  A    between atoms: _237  and  _240
REMARK   84  A    between atoms: _243  and  _245
REMARK   85  A    between atoms: _245  and  _246
REMARK   86  A    between atoms: _245  and  _248
REMARK   87  A    between atoms: _248  and  _249
REMARK   88  A    between atoms: _254  and  _256
REMARK   89  A    between atoms: _256  and  _257
REMARK   90  A    between atoms: _256  and  _259
REMARK   91  A    between atoms: _259  and  _260
REMARK   92  A    between atoms: _266  and  _268
REMARK   93  A    between atoms: _268  and  _269
REMARK   94  A    between atoms: _271  and  _273
REMARK   95  A    between atoms: _273  and  _274
REMARK   96  A    between atoms: _273  and  _276
REMARK   97  A    between atoms: _276  and  _277
REMARK   98  A    between atoms: _277  and  _278
REMARK   99  A    between atoms: _278  and  _279
REMARK  100  A    between atoms: _279  and  _280
REMARK  101  A    between atoms: _284  and  _286
REMARK  102  A    between atoms: _286  and  _287
REMARK  103  A    between atoms: _286  and  _289
REMARK  104  A    between atoms: _292  and  _294
REMARK  105  A    between atoms: _294  and  _295
REMARK  106  A    between atoms: _294  and  _297
REMARK  107  A    between atoms: _297  and  _298
REMARK  108  A    between atoms: _298  and  _299
REMARK  109  A    between atoms: _304  and  _306
REMARK  110  A    between atoms: _306  and  _307
REMARK  111  A    between atoms: _306  and  _309
REMARK  112  A    between atoms: _309  and  _310
REMARK  113  A    between atoms: _313  and  _315
REMARK  114  A    between atoms: _315  and  _316
REMARK  115  A    between atoms: _319  and  _321
REMARK  116  A    between atoms: _321  and  _322
REMARK  117  A    between atoms: _321  and  _324
REMARK  118  A    between atoms: _327  and  _329
REMARK  119  A    between atoms: _329  and  _330
REMARK  120  A    between atoms: _329  and  _332
REMARK  121  A    between atoms: _332  and  _333
REMARK  122  A    between atoms: _336  and  _338
REMARK  123  A    between atoms: _338  and  _339
REMARK  124  A    between atoms: _341  and  _343
REMARK  125  A    between atoms: _343  and  _344
REMARK  126  A    between atoms: _343  and  _346
REMARK  127  A    between atoms: _346  and  _347
REMARK  128  A    between atoms: _349  and  _351
REMARK  129  A    between atoms: _351  and  _352
REMARK  130  A    between atoms: _351  and  _354
REMARK  131  A    between atoms: _354  and  _355
REMARK  132  A    between atoms: _358  and  _360
REMARK  133  A    between atoms: _360  and  _361
REMARK  134  A    between atoms: _360  and  _363
REMARK  135  A    between atoms: _363  and  _364
REMARK  136  A    between atoms: _367  and  _369
REMARK  137  A    between atoms: _369  and  _370
REMARK  138  A    between atoms: _369  and  _372
REMARK  139  A    between atoms: _372  and  _373
REMARK  140  A    between atoms: _377  and  _378
REMARK  141  A    between atoms: _384  and  _385
REMARK  142  A    between atoms: _390  and  _392
REMARK  143  A    between atoms: _392  and  _393
REMARK  144  A    between atoms: _392  and  _395
REMARK  145  A    between atoms: _395  and  _396
REMARK  146  A    between atoms: _399  and  _401
REMARK  147  A    between atoms: _401  and  _402
REMARK  148  A    between atoms: _401  and  _404
REMARK  149  A    between atoms: _404  and  _405
REMARK  150  A    between atoms: _408  and  _410
REMARK  151  A    between atoms: _410  and  _411
REMARK  152  A    between atoms: _410  and  _413
REMARK  153  A    between atoms: _416  and  _418
REMARK  154  A    between atoms: _418  and  _419
REMARK  155  A    between atoms: _418  and  _421
REMARK  156  A    between atoms: _421  and  _422
REMARK  157  A    between atoms: _432  and  _434
REMARK  158  A    between atoms: _434  and  _435
REMARK  159  A    between atoms: _434  and  _437
REMARK  160  A    between atoms: _437  and  _438
REMARK  161  A    between atoms: _443  and  _445
REMARK  162  A    between atoms: _445  and  _446
REMARK  163  A    between atoms: _445  and  _448
REMARK  164  A    between atoms: _448  and  _449
REMARK  165  A    between atoms: _449  and  _450
REMARK  166  A    between atoms: _450  and  _451
REMARK                            x       y       z     vdW  Elec       q    Type
REMARK                         _______ _______ _______ _____ _____    ______ ____
ROOT
ATOM      1  O   HOH     1      -1.496  -4.535  16.319  0.00  0.00    +0.000 OA
ENDROOT
TORSDOF 0
REMARK  Name = ../refined-set-2016/1if8/1if8_pocket.pdb
REMARK  166 active torsions:
REMARK  status: ('A' for Active; 'I' for Inactive)
REMARK    1  A    between atoms: _1  and  _3
REMARK    2  A    between atoms: _3  and  _4
REMARK    3  A    between atoms: _3  and  _6
REMARK    4  A    between atoms: _6  and  _7
REMARK    5  A    between atoms: _12  and  _14
REMARK    6  A    between atoms: _14  and  _15
REMARK    7  A    between atoms: _14  and  _17
REMARK    8  A    between atoms: _17  and  _18
REMARK    9  A    between atoms: _28  and  _30
REMARK   10  A    between atoms: _30  and  _31
REMARK   11  A    between atoms: _30  and  _33
REMARK   12  A    between atoms: _33  and  _34
REMARK   13  A    between atoms: _39  and  _40
REMARK   14  A    between atoms: _42  and  _44
REMARK   15  A    between atoms: _44  and  _45
REMARK   16  A    between atoms: _44  and  _47
REMARK   17  A    between atoms: _47  and  _48
REMARK   18  A    between atoms: _54  and  _56
REMARK   19  A    between atoms: _56  and  _57
REMARK   20  A    between atoms: _56  and  _59
REMARK   21  A    between atoms: _59  and  _60
REMARK   22  A    between atoms: _63  and  _64
REMARK   23  A    between atoms: _69  and  _71
REMARK   24  A    between atoms: _71  and  _72
REMARK   25  A    between atoms: _71  and  _74
REMARK   26  A    between atoms: _74  and  _75
REMARK   27  A    between atoms: _80  and  _82
REMARK   28  A    between atoms: _82  and  _83
REMARK   29  A    between atoms: _82  and  _85
REMARK   30  A    between atoms: _85  and  _86
REMARK   31  A    between atoms: _91  and  _93
REMARK   32  A    between atoms: _93  and  _94
REMARK   33  A    between atoms: _97  and  _99
REMARK   34  A    between atoms: _99  and  _100
REMARK   35  A    between atoms: _99  and  _102
REMARK   36  A    between atoms: _102  and  _103
REMARK   37  A    between atoms: _108  and  _110
REMARK   38  A    between atoms: _110  and  _111
REMARK   39  A    between atoms: _110  and  _113
REMARK   40  A    between atoms: _113  and  _114
REMARK   41  A    between atoms: _117  and  _119
REMARK   42  A    between atoms: _119  and  _120
REMARK   43  A    between atoms: _119  and  _122
REMARK   44  A    between atoms: _122  and  _123
REMARK   45  A    between atoms: _123  and  _124
REMARK   46  A    between atoms: _129  and  _131
REMARK   47  A    between atoms: _131  and  _132
REMARK   48  A    between atoms: _131  and  _134
REMARK   49  A    between atoms: _134  and  _135
REMARK   50  A    between atoms: _141  and  _143
REMARK   51  A    between atoms: _154  and  _157
REMARK   52  A    between atoms: _157  and  _158
REMARK   53  A    between atoms: _166  and  _167
REMARK   54  A    between atoms: _175  and  _177
REMARK   55  A    between atoms: _177  and  _178
REMARK   56  A    between atoms: _177  and  _180
REMARK   57  A    between atoms: _180  and  _181
REMARK   58  A    between atoms: _181  and  _182
REMARK   59  A    between atoms: _185  and  _187
REMARK   60  A    between atoms: _187  and  _188
REMARK   61  A    between atoms: _187  and  _190
REMARK   62  A    between atoms: _190  and  _191
REMARK   63  A    between atoms: _196  and  _198
REMARK   64  A    between atoms: _198  and  _199
REMARK   65  A    between atoms: _198  and  _201
REMARK   66  A    between atoms: _201  and  _202
REMARK   67  A    between atoms: _202  and  _203
REMARK   68  A    between atoms: _206  and  _208
REMARK   69  A    between atoms: _208  and  _209
REMARK   70  A    between atoms: _208  and  _211
REMARK   71  A    between atoms: _211  and  _212
REMARK   72  A    between atoms: _215  and  _217
REMARK   73  A    between atoms: _217  and  _218
REMARK   74  A    between atoms: _217  and  _220
REMARK   75  A    between atoms: _220  and  _221
REMARK   76  A    between atoms: _222  and  ZN_460
REMARK   77  A    between atoms: _226  and  _228
REMARK   78  A    between atoms: _228  and  _229
REMARK   79  A    between atoms: _228  and  _231
REMARK   80  A    between atoms: _231  and  _232
REMARK   81  A    between atoms: _235  and  _237
REMARK   82  A    between atoms: _237  and  _238
REMARK   83  A    between atoms: _237  and  _240
REMARK   84  A    between atoms: _243  and  _245
REMARK   85  A    between atoms: _245  and  _246
REMARK   86  A    between atoms: _245  and  _248
REMARK   87  A    between atoms: _248  and  _249
REMARK   88  A    between atoms: _254  and  _256
REMARK   89  A    between atoms: _256  and  _257
REMARK   90  A    between atoms: _256  and  _259
REMARK   91  A    between atoms: _259  and  _260
REMARK   92  A    between atoms: _266  and  _268
REMARK   93  A    between atoms: _268  and  _269
REMARK   94  A    between atoms: _271  and  _273
REMARK   95  A    between atoms: _273  and  _274
REMARK   96  A    between atoms: _273  and  _276
REMARK   97  A    between atoms: _276  and  _277
REMARK   98  A    between atoms: _277  and  _278
REMARK   99  A    between atoms: _278  and  _279
REMARK  100  A    between atoms: _279  and  _280
REMARK  101  A    between atoms: _284  and  _286
REMARK  102  A    between atoms: _286  and  _287
REMARK  103  A    between atoms: _286  and  _289
REMARK  104  A    between atoms: _292  and  _294
REMARK  105  A    between atoms: _294  and  _295
REMARK  106  A    between atoms: _294  and  _297
REMARK  107  A    between atoms: _297  and  _298
REMARK  108  A    between atoms: _298  and  _299
REMARK  109  A    between atoms: _304  and  _306
REMARK  110  A    between atoms: _306  and  _307
REMARK  111  A    between atoms: _306  and  _309
REMARK  112  A    between atoms: _309  and  _310
REMARK  113  A    between atoms: _313  and  _315
REMARK  114  A    between atoms: _315  and  _316
REMARK  115  A    between atoms: _319  and  _321
REMARK  116  A    between atoms: _321  and  _322
REMARK  117  A    between atoms: _321  and  _324
REMARK  118  A    between atoms: _327  and  _329
REMARK  119  A    between atoms: _329  and  _330
REMARK  120  A    between atoms: _329  and  _332
REMARK  121  A    between atoms: _332  and  _333
REMARK  122  A    between atoms: _336  and  _338
REMARK  123  A    between atoms: _338  and  _339
REMARK  124  A    between atoms: _341  and  _343
REMARK  125  A    between atoms: _343  and  _344
REMARK  126  A    between atoms: _343  and  _346
REMARK  127  A    between atoms: _346  and  _347
REMARK  128  A    between atoms: _349  and  _351
REMARK  129  A    between atoms: _351  and  _352
REMARK  130  A    between atoms: _351  and  _354
REMARK  131  A    between atoms: _354  and  _355
REMARK  132  A    between atoms: _358  and  _360
REMARK  133  A    between atoms: _360  and  _361
REMARK  134  A    between atoms: _360  and  _363
REMARK  135  A    between atoms: _363  and  _364
REMARK  136  A    between atoms: _367  and  _369
REMARK  137  A    between atoms: _369  and  _370
REMARK  138  A    between atoms: _369  and  _372
REMARK  139  A    between atoms: _372  and  _373
REMARK  140  A    between atoms: _377  and  _378
REMARK  141  A    between atoms: _384  and  _385
REMARK  142  A    between atoms: _390  and  _392
REMARK  143  A    between atoms: _392  and  _393
REMARK  144  A    between atoms: _392  and  _395
REMARK  145  A    between atoms: _395  and  _396
REMARK  146  A    between atoms: _399  and  _401
REMARK  147  A    between atoms: _401  and  _402
REMARK  148  A    between atoms: _401  and  _404
REMARK  149  A    between atoms: _404  and  _405
REMARK  150  A    between atoms: _408  and  _410
REMARK  151  A    between atoms: _410  and  _411
REMARK  152  A    between atoms: _410  and  _413
REMARK  153  A    between atoms: _416  and  _418
REMARK  154  A    between atoms: _418  and  _419
REMARK  155  A    between atoms: _418  and  _421
REMARK  156  A    between atoms: _421  and  _422
REMARK  157  A    between atoms: _432  and  _434
REMARK  158  A    between atoms: _434  and  _435
REMARK  159  A    between atoms: _434  and  _437
REMARK  160  A    between atoms: _437  and  _438
REMARK  161  A    between atoms: _443  and  _445
REMARK  162  A    between atoms: _445  and  _446
REMARK  163  A    between atoms: _445  and  _448
REMARK  164  A    between atoms: _448  and  _449
REMARK  165  A    between atoms: _449  and  _450
REMARK  166  A    between atoms: _450  and  _451
REMARK                            x       y       z     vdW  Elec       q    Type
REMARK                         _______ _______ _______ _____ _____    ______ ____
ROOT
ATOM      1  O   HOH     1      -4.280   7.490  18.171  0.00  0.00    +0.000 OA
ENDROOT
TORSDOF 0
REMARK  Name = ../refined-set-2016/1if8/1if8_pocket.pdb
REMARK  166 active torsions:
REMARK  status: ('A' for Active; 'I' for Inactive)
REMARK    1  A    between atoms: _1  and  _3
REMARK    2  A    between atoms: _3  and  _4
REMARK    3  A    between atoms: _3  and  _6
REMARK    4  A    between atoms: _6  and  _7
REMARK    5  A    between atoms: _12  and  _14
REMARK    6  A    between atoms: _14  and  _15
REMARK    7  A    between atoms: _14  and  _17
REMARK    8  A    between atoms: _17  and  _18
REMARK    9  A    between atoms: _28  and  _30
REMARK   10  A    between atoms: _30  and  _31
REMARK   11  A    between atoms: _30  and  _33
REMARK   12  A    between atoms: _33  and  _34
REMARK   13  A    between atoms: _39  and  _40
REMARK   14  A    between atoms: _42  and  _44
REMARK   15  A    between atoms: _44  and  _45
REMARK   16  A    between atoms: _44  and  _47
REMARK   17  A    between atoms: _47  and  _48
REMARK   18  A    between atoms: _54  and  _56
REMARK   19  A    between atoms: _56  and  _57
REMARK   20  A    between atoms: _56  and  _59
REMARK   21  A    between atoms: _59  and  _60
REMARK   22  A    between atoms: _63  and  _64
REMARK   23  A    between atoms: _69  and  _71
REMARK   24  A    between atoms: _71  and  _72
REMARK   25  A    between atoms: _71  and  _74
REMARK   26  A    between atoms: _74  and  _75
REMARK   27  A    between atoms: _80  and  _82
REMARK   28  A    between atoms: _82  and  _83
REMARK   29  A    between atoms: _82  and  _85
REMARK   30  A    between atoms: _85  and  _86
REMARK   31  A    between atoms: _91  and  _93
REMARK   32  A    between atoms: _93  and  _94
REMARK   33  A    between atoms: _97  and  _99
REMARK   34  A    between atoms: _99  and  _100
REMARK   35  A    between atoms: _99  and  _102
REMARK   36  A    between atoms: _102  and  _103
REMARK   37  A    between atoms: _108  and  _110
REMARK   38  A    between atoms: _110  and  _111
REMARK   39  A    between atoms: _110  and  _113
REMARK   40  A    between atoms: _113  and  _114
REMARK   41  A    between atoms: _117  and  _119
REMARK   42  A    between atoms: _119  and  _120
REMARK   43  A    between atoms: _119  and  _122
REMARK   44  A    between atoms: _122  and  _123
REMARK   45  A    between atoms: _123  and  _124
REMARK   46  A    between atoms: _129  and  _131
REMARK   47  A    between atoms: _131  and  _132
REMARK   48  A    between atoms: _131  and  _134
REMARK   49  A    between atoms: _134  and  _135
REMARK   50  A    between atoms: _141  and  _143
REMARK   51  A    between atoms: _154  and  _157
REMARK   52  A    between atoms: _157  and  _158
REMARK   53  A    between atoms: _166  and  _167
REMARK   54  A    between atoms: _175  and  _177
REMARK   55  A    between atoms: _177  and  _178
REMARK   56  A    between atoms: _177  and  _180
REMARK   57  A    between atoms: _180  and  _181
REMARK   58  A    between atoms: _181  and  _182
REMARK   59  A    between atoms: _185  and  _187
REMARK   60  A    between atoms: _187  and  _188
REMARK   61  A    between atoms: _187  and  _190
REMARK   62  A    between atoms: _190  and  _191
REMARK   63  A    between atoms: _196  and  _198
REMARK   64  A    between atoms: _198  and  _199
REMARK   65  A    between atoms: _198  and  _201
REMARK   66  A    between atoms: _201  and  _202
REMARK   67  A    between atoms: _202  and  _203
REMARK   68  A    between atoms: _206  and  _208
REMARK   69  A    between atoms: _208  and  _209
REMARK   70  A    between atoms: _208  and  _211
REMARK   71  A    between atoms: _211  and  _212
REMARK   72  A    between atoms: _215  and  _217
REMARK   73  A    between atoms: _217  and  _218
REMARK   74  A    between atoms: _217  and  _220
REMARK   75  A    between atoms: _220  and  _221
REMARK   76  A    between atoms: _222  and  ZN_460
REMARK   77  A    between atoms: _226  and  _228
REMARK   78  A    between atoms: _228  and  _229
REMARK   79  A    between atoms: _228  and  _231
REMARK   80  A    between atoms: _231  and  _232
REMARK   81  A    between atoms: _235  and  _237
REMARK   82  A    between atoms: _237  and  _238
REMARK   83  A    between atoms: _237  and  _240
REMARK   84  A    between atoms: _243  and  _245
REMARK   85  A    between atoms: _245  and  _246
REMARK   86  A    between atoms: _245  and  _248
REMARK   87  A    between atoms: _248  and  _249
REMARK   88  A    between atoms: _254  and  _256
REMARK   89  A    between atoms: _256  and  _257
REMARK   90  A    between atoms: _256  and  _259
REMARK   91  A    between atoms: _259  and  _260
REMARK   92  A    between atoms: _266  and  _268
REMARK   93  A    between atoms: _268  and  _269
REMARK   94  A    between atoms: _271  and  _273
REMARK   95  A    between atoms: _273  and  _274
REMARK   96  A    between atoms: _273  and  _276
REMARK   97  A    between atoms: _276  and  _277
REMARK   98  A    between atoms: _277  and  _278
REMARK   99  A    between atoms: _278  and  _279
REMARK  100  A    between atoms: _279  and  _280
REMARK  101  A    between atoms: _284  and  _286
REMARK  102  A    between atoms: _286  and  _287
REMARK  103  A    between atoms: _286  and  _289
REMARK  104  A    between atoms: _292  and  _294
REMARK  105  A    between atoms: _294  and  _295
REMARK  106  A    between atoms: _294  and  _297
REMARK  107  A    between atoms: _297  and  _298
REMARK  108  A    between atoms: _298  and  _299
REMARK  109  A    between atoms: _304  and  _306
REMARK  110  A    between atoms: _306  and  _307
REMARK  111  A    between atoms: _306  and  _309
REMARK  112  A    between atoms: _309  and  _310
REMARK  113  A    between atoms: _313  and  _315
REMARK  114  A    between atoms: _315  and  _316
REMARK  115  A    between atoms: _319  and  _321
REMARK  116  A    between atoms: _321  and  _322
REMARK  117  A    between atoms: _321  and  _324
REMARK  118  A    between atoms: _327  and  _329
REMARK  119  A    between atoms: _329  and  _330
REMARK  120  A    between atoms: _329  and  _332
REMARK  121  A    between atoms: _332  and  _333
REMARK  122  A    between atoms: _336  and  _338
REMARK  123  A    between atoms: _338  and  _339
REMARK  124  A    between atoms: _341  and  _343
REMARK  125  A    between atoms: _343  and  _344
REMARK  126  A    between atoms: _343  and  _346
REMARK  127  A    between atoms: _346  and  _347
REMARK  128  A    between atoms: _349  and  _351
REMARK  129  A    between atoms: _351  and  _352
REMARK  130  A    between atoms: _351  and  _354
REMARK  131  A    between atoms: _354  and  _355
REMARK  132  A    between atoms: _358  and  _360
REMARK  133  A    between atoms: _360  and  _361
REMARK  134  A    between atoms: _360  and  _363
REMARK  135  A    between atoms: _363  and  _364
REMARK  136  A    between atoms: _367  and  _369
REMARK  137  A    between atoms: _369  and  _370
REMARK  138  A    between atoms: _369  and  _372
REMARK  139  A    between atoms: _372  and  _373
REMARK  140  A    between atoms: _377  and  _378
REMARK  141  A    between atoms: _384  and  _385
REMARK  142  A    between atoms: _390  and  _392
REMARK  143  A    between atoms: _392  and  _393
REMARK  144  A    between atoms: _392  and  _395
REMARK  145  A    between atoms: _395  and  _396
REMARK  146  A    between atoms: _399  and  _401
REMARK  147  A    between atoms: _401  and  _402
REMARK  148  A    between atoms: _401  and  _404
REMARK  149  A    between atoms: _404  and  _405
REMARK  150  A    between atoms: _408  and  _410
REMARK  151  A    between atoms: _410  and  _411
REMARK  152  A    between atoms: _410  and  _413
REMARK  153  A    between atoms: _416  and  _418
REMARK  154  A    between atoms: _418  and  _419
REMARK  155  A    between atoms: _418  and  _421
REMARK  156  A    between atoms: _421  and  _422
REMARK  157  A    between atoms: _432  and  _434
REMARK  158  A    between atoms: _434  and  _435
REMARK  159  A    between atoms: _434  and  _437
REMARK  160  A    between atoms: _437  and  _438
REMARK  161  A    between atoms: _443  and  _445
REMARK  162  A    between atoms: _445  and  _446
REMARK  163  A    between atoms: _445  and  _448
REMARK  164  A    between atoms: _448  and  _449
REMARK  165  A    between atoms: _449  and  _450
REMARK  166  A    between atoms: _450  and  _451
REMARK                            x       y       z     vdW  Elec       q    Type
REMARK                         _______ _______ _______ _____ _____    ______ ____
ROOT
ATOM      1  O   HOH     1      -6.651   5.180   6.722  0.00  0.00    +0.000 OA
ENDROOT
TORSDOF 0
REMARK  Name = ../refined-set-2016/1if8/1if8_pocket.pdb
REMARK  166 active torsions:
REMARK  status: ('A' for Active; 'I' for Inactive)
REMARK    1  A    between atoms: _1  and  _3
REMARK    2  A    between atoms: _3  and  _4
REMARK    3  A    between atoms: _3  and  _6
REMARK    4  A    between atoms: _6  and  _7
REMARK    5  A    between atoms: _12  and  _14
REMARK    6  A    between atoms: _14  and  _15
REMARK    7  A    between atoms: _14  and  _17
REMARK    8  A    between atoms: _17  and  _18
REMARK    9  A    between atoms: _28  and  _30
REMARK   10  A    between atoms: _30  and  _31
REMARK   11  A    between atoms: _30  and  _33
REMARK   12  A    between atoms: _33  and  _34
REMARK   13  A    between atoms: _39  and  _40
REMARK   14  A    between atoms: _42  and  _44
REMARK   15  A    between atoms: _44  and  _45
REMARK   16  A    between atoms: _44  and  _47
REMARK   17  A    between atoms: _47  and  _48
REMARK   18  A    between atoms: _54  and  _56
REMARK   19  A    between atoms: _56  and  _57
REMARK   20  A    between atoms: _56  and  _59
REMARK   21  A    between atoms: _59  and  _60
REMARK   22  A    between atoms: _63  and  _64
REMARK   23  A    between atoms: _69  and  _71
REMARK   24  A    between atoms: _71  and  _72
REMARK   25  A    between atoms: _71  and  _74
REMARK   26  A    between atoms: _74  and  _75
REMARK   27  A    between atoms: _80  and  _82
REMARK   28  A    between atoms: _82  and  _83
REMARK   29  A    between atoms: _82  and  _85
REMARK   30  A    between atoms: _85  and  _86
REMARK   31  A    between atoms: _91  and  _93
REMARK   32  A    between atoms: _93  and  _94
REMARK   33  A    between atoms: _97  and  _99
REMARK   34  A    between atoms: _99  and  _100
REMARK   35  A    between atoms: _99  and  _102
REMARK   36  A    between atoms: _102  and  _103
REMARK   37  A    between atoms: _108  and  _110
REMARK   38  A    between atoms: _110  and  _111
REMARK   39  A    between atoms: _110  and  _113
REMARK   40  A    between atoms: _113  and  _114
REMARK   41  A    between atoms: _117  and  _119
REMARK   42  A    between atoms: _119  and  _120
REMARK   43  A    between atoms: _119  and  _122
REMARK   44  A    between atoms: _122  and  _123
REMARK   45  A    between atoms: _123  and  _124
REMARK   46  A    between atoms: _129  and  _131
REMARK   47  A    between atoms: _131  and  _132
REMARK   48  A    between atoms: _131  and  _134
REMARK   49  A    between atoms: _134  and  _135
REMARK   50  A    between atoms: _141  and  _143
REMARK   51  A    between atoms: _154  and  _157
REMARK   52  A    between atoms: _157  and  _158
REMARK   53  A    between atoms: _166  and  _167
REMARK   54  A    between atoms: _175  and  _177
REMARK   55  A    between atoms: _177  and  _178
REMARK   56  A    between atoms: _177  and  _180
REMARK   57  A    between atoms: _180  and  _181
REMARK   58  A    between atoms: _181  and  _182
REMARK   59  A    between atoms: _185  and  _187
REMARK   60  A    between atoms: _187  and  _188
REMARK   61  A    between atoms: _187  and  _190
REMARK   62  A    between atoms: _190  and  _191
REMARK   63  A    between atoms: _196  and  _198
REMARK   64  A    between atoms: _198  and  _199
REMARK   65  A    between atoms: _198  and  _201
REMARK   66  A    between atoms: _201  and  _202
REMARK   67  A    between atoms: _202  and  _203
REMARK   68  A    between atoms: _206  and  _208
REMARK   69  A    between atoms: _208  and  _209
REMARK   70  A    between atoms: _208  and  _211
REMARK   71  A    between atoms: _211  and  _212
REMARK   72  A    between atoms: _215  and  _217
REMARK   73  A    between atoms: _217  and  _218
REMARK   74  A    between atoms: _217  and  _220
REMARK   75  A    between atoms: _220  and  _221
REMARK   76  A    between atoms: _222  and  ZN_460
REMARK   77  A    between atoms: _226  and  _228
REMARK   78  A    between atoms: _228  and  _229
REMARK   79  A    between atoms: _228  and  _231
REMARK   80  A    between atoms: _231  and  _232
REMARK   81  A    between atoms: _235  and  _237
REMARK   82  A    between atoms: _237  and  _238
REMARK   83  A    between atoms: _237  and  _240
REMARK   84  A    between atoms: _243  and  _245
REMARK   85  A    between atoms: _245  and  _246
REMARK   86  A    between atoms: _245  and  _248
REMARK   87  A    between atoms: _248  and  _249
REMARK   88  A    between atoms: _254  and  _256
REMARK   89  A    between atoms: _256  and  _257
REMARK   90  A    between atoms: _256  and  _259
REMARK   91  A    between atoms: _259  and  _260
REMARK   92  A    between atoms: _266  and  _268
REMARK   93  A    between atoms: _268  and  _269
REMARK   94  A    between atoms: _271  and  _273
REMARK   95  A    between atoms: _273  and  _274
REMARK   96  A    between atoms: _273  and  _276
REMARK   97  A    between atoms: _276  and  _277
REMARK   98  A    between atoms: _277  and  _278
REMARK   99  A    between atoms: _278  and  _279
REMARK  100  A    between atoms: _279  and  _280
REMARK  101  A    between atoms: _284  and  _286
REMARK  102  A    between atoms: _286  and  _287
REMARK  103  A    between atoms: _286  and  _289
REMARK  104  A    between atoms: _292  and  _294
REMARK  105  A    between atoms: _294  and  _295
REMARK  106  A    between atoms: _294  and  _297
REMARK  107  A    between atoms: _297  and  _298
REMARK  108  A    between atoms: _298  and  _299
REMARK  109  A    between atoms: _304  and  _306
REMARK  110  A    between atoms: _306  and  _307
REMARK  111  A    between atoms: _306  and  _309
REMARK  112  A    between atoms: _309  and  _310
REMARK  113  A    between atoms: _313  and  _315
REMARK  114  A    between atoms: _315  and  _316
REMARK  115  A    between atoms: _319  and  _321
REMARK  116  A    between atoms: _321  and  _322
REMARK  117  A    between atoms: _321  and  _324
REMARK  118  A    between atoms: _327  and  _329
REMARK  119  A    between atoms: _329  and  _330
REMARK  120  A    between atoms: _329  and  _332
REMARK  121  A    between atoms: _332  and  _333
REMARK  122  A    between atoms: _336  and  _338
REMARK  123  A    between atoms: _338  and  _339
REMARK  124  A    between atoms: _341  and  _343
REMARK  125  A    between atoms: _343  and  _344
REMARK  126  A    between atoms: _343  and  _346
REMARK  127  A    between atoms: _346  and  _347
REMARK  128  A    between atoms: _349  and  _351
REMARK  129  A    between atoms: _351  and  _352
REMARK  130  A    between atoms: _351  and  _354
REMARK  131  A    between atoms: _354  and  _355
REMARK  132  A    between atoms: _358  and  _360
REMARK  133  A    between atoms: _360  and  _361
REMARK  134  A    between atoms: _360  and  _363
REMARK  135  A    between atoms: _363  and  _364
REMARK  136  A    between atoms: _367  and  _369
REMARK  137  A    between atoms: _369  and  _370
REMARK  138  A    between atoms: _369  and  _372
REMARK  139  A    between atoms: _372  and  _373
REMARK  140  A    between atoms: _377  and  _378
REMARK  141  A    between atoms: _384  and  _385
REMARK  142  A    between atoms: _390  and  _392
REMARK  143  A    between atoms: _392  and  _393
REMARK  144  A    between atoms: _392  and  _395
REMARK  145  A    between atoms: _395  and  _396
REMARK  146  A    between atoms: _399  and  _401
REMARK  147  A    between atoms: _401  and  _402
REMARK  148  A    between atoms: _401  and  _404
REMARK  149  A    between atoms: _404  and  _405
REMARK  150  A    between atoms: _408  and  _410
REMARK  151  A    between atoms: _410  and  _411
REMARK  152  A    between atoms: _410  and  _413
REMARK  153  A    between atoms: _416  and  _418
REMARK  154  A    between atoms: _418  and  _419
REMARK  155  A    between atoms: _418  and  _421
REMARK  156  A    between atoms: _421  and  _422
REMARK  157  A    between atoms: _432  and  _434
REMARK  158  A    between atoms: _434  and  _435
REMARK  159  A    between atoms: _434  and  _437
REMARK  160  A    between atoms: _437  and  _438
REMARK  161  A    between atoms: _443  and  _445
REMARK  162  A    between atoms: _445  and  _446
REMARK  163  A    between atoms: _445  and  _448
REMARK  164  A    between atoms: _448  and  _449
REMARK  165  A    between atoms: _449  and  _450
REMARK  166  A    between atoms: _450  and  _451
REMARK                            x       y       z     vdW  Elec       q    Type
REMARK                         _______ _______ _______ _____ _____    ______ ____
ROOT
ATOM      1  O   HOH     1      -2.995  -4.080  11.986  0.00  0.00    +0.000 OA
ENDROOT
TORSDOF 0
REMARK  Name = ../refined-set-2016/1if8/1if8_pocket.pdb
REMARK  166 active torsions:
REMARK  status: ('A' for Active; 'I' for Inactive)
REMARK    1  A    between atoms: _1  and  _3
REMARK    2  A    between atoms: _3  and  _4
REMARK    3  A    between atoms: _3  and  _6
REMARK    4  A    between atoms: _6  and  _7
REMARK    5  A    between atoms: _12  and  _14
REMARK    6  A    between atoms: _14  and  _15
REMARK    7  A    between atoms: _14  and  _17
REMARK    8  A    between atoms: _17  and  _18
REMARK    9  A    between atoms: _28  and  _30
REMARK   10  A    between atoms: _30  and  _31
REMARK   11  A    between atoms: _30  and  _33
REMARK   12  A    between atoms: _33  and  _34
REMARK   13  A    between atoms: _39  and  _40
REMARK   14  A    between atoms: _42  and  _44
REMARK   15  A    between atoms: _44  and  _45
REMARK   16  A    between atoms: _44  and  _47
REMARK   17  A    between atoms: _47  and  _48
REMARK   18  A    between atoms: _54  and  _56
REMARK   19  A    between atoms: _56  and  _57
REMARK   20  A    between atoms: _56  and  _59
REMARK   21  A    between atoms: _59  and  _60
REMARK   22  A    between atoms: _63  and  _64
REMARK   23  A    between atoms: _69  and  _71
REMARK   24  A    between atoms: _71  and  _72
REMARK   25  A    between atoms: _71  and  _74
REMARK   26  A    between atoms: _74  and  _75
REMARK   27  A    between atoms: _80  and  _82
REMARK   28  A    between atoms: _82  and  _83
REMARK   29  A    between atoms: _82  and  _85
REMARK   30  A    between atoms: _85  and  _86
REMARK   31  A    between atoms: _91  and  _93
REMARK   32  A    between atoms: _93  and  _94
REMARK   33  A    between atoms: _97  and  _99
REMARK   34  A    between atoms: _99  and  _100
REMARK   35  A    between atoms: _99  and  _102
REMARK   36  A    between atoms: _102  and  _103
REMARK   37  A    between atoms: _108  and  _110
REMARK   38  A    between atoms: _110  and  _111
REMARK   39  A    between atoms: _110  and  _113
REMARK   40  A    between atoms: _113  and  _114
REMARK   41  A    between atoms: _117  and  _119
REMARK   42  A    between atoms: _119  and  _120
REMARK   43  A    between atoms: _119  and  _122
REMARK   44  A    between atoms: _122  and  _123
REMARK   45  A    between atoms: _123  and  _124
REMARK   46  A    between atoms: _129  and  _131
REMARK   47  A    between atoms: _131  and  _132
REMARK   48  A    between atoms: _131  and  _134
REMARK   49  A    between atoms: _134  and  _135
REMARK   50  A    between atoms: _141  and  _143
REMARK   51  A    between atoms: _154  and  _157
REMARK   52  A    between atoms: _157  and  _158
REMARK   53  A    between atoms: _166  and  _167
REMARK   54  A    between atoms: _175  and  _177
REMARK   55  A    between atoms: _177  and  _178
REMARK   56  A    between atoms: _177  and  _180
REMARK   57  A    between atoms: _180  and  _181
REMARK   58  A    between atoms: _181  and  _182
REMARK   59  A    between atoms: _185  and  _187
REMARK   60  A    between atoms: _187  and  _188
REMARK   61  A    between atoms: _187  and  _190
REMARK   62  A    between atoms: _190  and  _191
REMARK   63  A    between atoms: _196  and  _198
REMARK   64  A    between atoms: _198  and  _199
REMARK   65  A    between atoms: _198  and  _201
REMARK   66  A    between atoms: _201  and  _202
REMARK   67  A    between atoms: _202  and  _203
REMARK   68  A    between atoms: _206  and  _208
REMARK   69  A    between atoms: _208  and  _209
REMARK   70  A    between atoms: _208  and  _211
REMARK   71  A    between atoms: _211  and  _212
REMARK   72  A    between atoms: _215  and  _217
REMARK   73  A    between atoms: _217  and  _218
REMARK   74  A    between atoms: _217  and  _220
REMARK   75  A    between atoms: _220  and  _221
REMARK   76  A    between atoms: _222  and  ZN_460
REMARK   77  A    between atoms: _226  and  _228
REMARK   78  A    between atoms: _228  and  _229
REMARK   79  A    between atoms: _228  and  _231
REMARK   80  A    between atoms: _231  and  _232
REMARK   81  A    between atoms: _235  and  _237
REMARK   82  A    between atoms: _237  and  _238
REMARK   83  A    between atoms: _237  and  _240
REMARK   84  A    between atoms: _243  and  _245
REMARK   85  A    between atoms: _245  and  _246
REMARK   86  A    between atoms: _245  and  _248
REMARK   87  A    between atoms: _248  and  _249
REMARK   88  A    between atoms: _254  and  _256
REMARK   89  A    between atoms: _256  and  _257
REMARK   90  A    between atoms: _256  and  _259
REMARK   91  A    between atoms: _259  and  _260
REMARK   92  A    between atoms: _266  and  _268
REMARK   93  A    between atoms: _268  and  _269
REMARK   94  A    between atoms: _271  and  _273
REMARK   95  A    between atoms: _273  and  _274
REMARK   96  A    between atoms: _273  and  _276
REMARK   97  A    between atoms: _276  and  _277
REMARK   98  A    between atoms: _277  and  _278
REMARK   99  A    between atoms: _278  and  _279
REMARK  100  A    between atoms: _279  and  _280
REMARK  101  A    between atoms: _284  and  _286
REMARK  102  A    between atoms: _286  and  _287
REMARK  103  A    between atoms: _286  and  _289
REMARK  104  A    between atoms: _292  and  _294
REMARK  105  A    between atoms: _294  and  _295
REMARK  106  A    between atoms: _294  and  _297
REMARK  107  A    between atoms: _297  and  _298
REMARK  108  A    between atoms: _298  and  _299
REMARK  109  A    between atoms: _304  and  _306
REMARK  110  A    between atoms: _306  and  _307
REMARK  111  A    between atoms: _306  and  _309
REMARK  112  A    between atoms: _309  and  _310
REMARK  113  A    between atoms: _313  and  _315
REMARK  114  A    between atoms: _315  and  _316
REMARK  115  A    between atoms: _319  and  _321
REMARK  116  A    between atoms: _321  and  _322
REMARK  117  A    between atoms: _321  and  _324
REMARK  118  A    between atoms: _327  and  _329
REMARK  119  A    between atoms: _329  and  _330
REMARK  120  A    between atoms: _329  and  _332
REMARK  121  A    between atoms: _332  and  _333
REMARK  122  A    between atoms: _336  and  _338
REMARK  123  A    between atoms: _338  and  _339
REMARK  124  A    between atoms: _341  and  _343
REMARK  125  A    between atoms: _343  and  _344
REMARK  126  A    between atoms: _343  and  _346
REMARK  127  A    between atoms: _346  and  _347
REMARK  128  A    between atoms: _349  and  _351
REMARK  129  A    between atoms: _351  and  _352
REMARK  130  A    between atoms: _351  and  _354
REMARK  131  A    between atoms: _354  and  _355
REMARK  132  A    between atoms: _358  and  _360
REMARK  133  A    between atoms: _360  and  _361
REMARK  134  A    between atoms: _360  and  _363
REMARK  135  A    between atoms: _363  and  _364
REMARK  136  A    between atoms: _367  and  _369
REMARK  137  A    between atoms: _369  and  _370
REMARK  138  A    between atoms: _369  and  _372
REMARK  139  A    between atoms: _372  and  _373
REMARK  140  A    between atoms: _377  and  _378
REMARK  141  A    between atoms: _384  and  _385
REMARK  142  A    between atoms: _390  and  _392
REMARK  143  A    between atoms: _392  and  _393
REMARK  144  A    between atoms: _392  and  _395
REMARK  145  A    between atoms: _395  and  _396
REMARK  146  A    between atoms: _399  and  _401
REMARK  147  A    between atoms: _401  and  _402
REMARK  148  A    between atoms: _401  and  _404
REMARK  149  A    between atoms: _404  and  _405
REMARK  150  A    between atoms: _408  and  _410
REMARK  151  A    between atoms: _410  and  _411
REMARK  152  A    between atoms: _410  and  _413
REMARK  153  A    between atoms: _416  and  _418
REMARK  154  A    between atoms: _418  and  _419
REMARK  155  A    between atoms: _418  and  _421
REMARK  156  A    between atoms: _421  and  _422
REMARK  157  A    between atoms: _432  and  _434
REMARK  158  A    between atoms: _434  and  _435
REMARK  159  A    between atoms: _434  and  _437
REMARK  160  A    between atoms: _437  and  _438
REMARK  161  A    between atoms: _443  and  _445
REMARK  162  A    between atoms: _445  and  _446
REMARK  163  A    between atoms: _445  and  _448
REMARK  164  A    between atoms: _448  and  _449
REMARK  165  A    between atoms: _449  and  _450
REMARK  166  A    between atoms: _450  and  _451
REMARK                            x       y       z     vdW  Elec       q    Type
REMARK                         _______ _______ _______ _____ _____    ______ ____
ROOT
ATOM      1  O   HOH     1      -5.041   0.445  11.183  0.00  0.00    +0.000 OA
ENDROOT
TORSDOF 0
