REMARK  Name = ../refined-set-2016/1g53/1g53_pocket.pdb
REMARK  161 active torsions:
REMARK  status: ('A' for Active; 'I' for Inactive)
REMARK    1  A    between atoms: _1  and  _3
REMARK    2  A    between atoms: _3  and  _4
REMARK    3  A    between atoms: _3  and  _6
REMARK    4  A    between atoms: _6  and  _7
REMARK    5  A    between atoms: _12  and  _14
REMARK    6  A    between atoms: _14  and  _15
REMARK    7  A    between atoms: _14  and  _17
REMARK    8  A    between atoms: _17  and  _18
REMARK    9  A    between atoms: _28  and  _30
REMARK   10  A    between atoms: _30  and  _31
REMARK   11  A    between atoms: _30  and  _33
REMARK   12  A    between atoms: _33  and  _34
REMARK   13  A    between atoms: _39  and  _40
REMARK   14  A    between atoms: _42  and  _44
REMARK   15  A    between atoms: _44  and  _45
REMARK   16  A    between atoms: _44  and  _47
REMARK   17  A    between atoms: _47  and  _48
REMARK   18  A    between atoms: _54  and  _56
REMARK   19  A    between atoms: _56  and  _57
REMARK   20  A    between atoms: _56  and  _59
REMARK   21  A    between atoms: _59  and  _60
REMARK   22  A    between atoms: _63  and  _64
REMARK   23  A    between atoms: _69  and  _71
REMARK   24  A    between atoms: _71  and  _72
REMARK   25  A    between atoms: _71  and  _74
REMARK   26  A    between atoms: _74  and  _75
REMARK   27  A    between atoms: _80  and  _82
REMARK   28  A    between atoms: _82  and  _83
REMARK   29  A    between atoms: _82  and  _85
REMARK   30  A    between atoms: _85  and  _86
REMARK   31  A    between atoms: _91  and  _93
REMARK   32  A    between atoms: _93  and  _94
REMARK   33  A    between atoms: _97  and  _99
REMARK   34  A    between atoms: _99  and  _100
REMARK   35  A    between atoms: _99  and  _102
REMARK   36  A    between atoms: _102  and  _103
REMARK   37  A    between atoms: _108  and  _110
REMARK   38  A    between atoms: _110  and  _111
REMARK   39  A    between atoms: _110  and  _113
REMARK   40  A    between atoms: _113  and  _114
REMARK   41  A    between atoms: _117  and  _119
REMARK   42  A    between atoms: _119  and  _120
REMARK   43  A    between atoms: _119  and  _122
REMARK   44  A    between atoms: _122  and  _123
REMARK   45  A    between atoms: _123  and  _124
REMARK   46  A    between atoms: _129  and  _131
REMARK   47  A    between atoms: _131  and  _132
REMARK   48  A    between atoms: _131  and  _134
REMARK   49  A    between atoms: _134  and  _135
REMARK   50  A    between atoms: _141  and  _143
REMARK   51  A    between atoms: _154  and  _157
REMARK   52  A    between atoms: _157  and  _158
REMARK   53  A    between atoms: _166  and  _167
REMARK   54  A    between atoms: _175  and  _177
REMARK   55  A    between atoms: _177  and  _178
REMARK   56  A    between atoms: _177  and  _180
REMARK   57  A    between atoms: _180  and  _181
REMARK   58  A    between atoms: _181  and  _182
REMARK   59  A    between atoms: _185  and  _187
REMARK   60  A    between atoms: _187  and  _188
REMARK   61  A    between atoms: _187  and  _190
REMARK   62  A    between atoms: _190  and  _191
REMARK   63  A    between atoms: _196  and  _198
REMARK   64  A    between atoms: _198  and  _199
REMARK   65  A    between atoms: _198  and  _201
REMARK   66  A    between atoms: _201  and  _202
REMARK   67  A    between atoms: _202  and  _203
REMARK   68  A    between atoms: _206  and  _208
REMARK   69  A    between atoms: _208  and  _209
REMARK   70  A    between atoms: _208  and  _211
REMARK   71  A    between atoms: _211  and  _212
REMARK   72  A    between atoms: _215  and  _217
REMARK   73  A    between atoms: _217  and  _218
REMARK   74  A    between atoms: _217  and  _220
REMARK   75  A    between atoms: _220  and  _221
REMARK   76  A    between atoms: _222  and  ZN_453
REMARK   77  A    between atoms: _226  and  _228
REMARK   78  A    between atoms: _228  and  _229
REMARK   79  A    between atoms: _228  and  _231
REMARK   80  A    between atoms: _231  and  _232
REMARK   81  A    between atoms: _235  and  _237
REMARK   82  A    between atoms: _237  and  _238
REMARK   83  A    between atoms: _237  and  _240
REMARK   84  A    between atoms: _243  and  _245
REMARK   85  A    between atoms: _245  and  _246
REMARK   86  A    between atoms: _245  and  _248
REMARK   87  A    between atoms: _248  and  _249
REMARK   88  A    between atoms: _254  and  _256
REMARK   89  A    between atoms: _256  and  _257
REMARK   90  A    between atoms: _256  and  _259
REMARK   91  A    between atoms: _259  and  _260
REMARK   92  A    between atoms: _266  and  _268
REMARK   93  A    between atoms: _268  and  _269
REMARK   94  A    between atoms: _271  and  _273
REMARK   95  A    between atoms: _273  and  _274
REMARK   96  A    between atoms: _277  and  _279
REMARK   97  A    between atoms: _279  and  _280
REMARK   98  A    between atoms: _279  and  _282
REMARK   99  A    between atoms: _285  and  _287
REMARK  100  A    between atoms: _287  and  _288
REMARK  101  A    between atoms: _287  and  _290
REMARK  102  A    between atoms: _290  and  _291
REMARK  103  A    between atoms: _291  and  _292
REMARK  104  A    between atoms: _297  and  _299
REMARK  105  A    between atoms: _299  and  _300
REMARK  106  A    between atoms: _299  and  _302
REMARK  107  A    between atoms: _302  and  _303
REMARK  108  A    between atoms: _306  and  _308
REMARK  109  A    between atoms: _308  and  _309
REMARK  110  A    between atoms: _312  and  _314
REMARK  111  A    between atoms: _314  and  _315
REMARK  112  A    between atoms: _314  and  _317
REMARK  113  A    between atoms: _320  and  _322
REMARK  114  A    between atoms: _322  and  _323
REMARK  115  A    between atoms: _322  and  _325
REMARK  116  A    between atoms: _325  and  _326
REMARK  117  A    between atoms: _329  and  _331
REMARK  118  A    between atoms: _331  and  _332
REMARK  119  A    between atoms: _334  and  _336
REMARK  120  A    between atoms: _336  and  _337
REMARK  121  A    between atoms: _336  and  _339
REMARK  122  A    between atoms: _339  and  _340
REMARK  123  A    between atoms: _342  and  _344
REMARK  124  A    between atoms: _344  and  _345
REMARK  125  A    between atoms: _344  and  _347
REMARK  126  A    between atoms: _347  and  _348
REMARK  127  A    between atoms: _351  and  _353
REMARK  128  A    between atoms: _353  and  _354
REMARK  129  A    between atoms: _353  and  _356
REMARK  130  A    between atoms: _356  and  _357
REMARK  131  A    between atoms: _360  and  _362
REMARK  132  A    between atoms: _362  and  _363
REMARK  133  A    between atoms: _362  and  _365
REMARK  134  A    between atoms: _365  and  _366
REMARK  135  A    between atoms: _370  and  _371
REMARK  136  A    between atoms: _377  and  _378
REMARK  137  A    between atoms: _383  and  _385
REMARK  138  A    between atoms: _385  and  _386
REMARK  139  A    between atoms: _385  and  _388
REMARK  140  A    between atoms: _388  and  _389
REMARK  141  A    between atoms: _392  and  _394
REMARK  142  A    between atoms: _394  and  _395
REMARK  143  A    between atoms: _394  and  _397
REMARK  144  A    between atoms: _397  and  _398
REMARK  145  A    between atoms: _401  and  _403
REMARK  146  A    between atoms: _403  and  _404
REMARK  147  A    between atoms: _403  and  _406
REMARK  148  A    between atoms: _409  and  _411
REMARK  149  A    between atoms: _411  and  _412
REMARK  150  A    between atoms: _411  and  _414
REMARK  151  A    between atoms: _414  and  _415
REMARK  152  A    between atoms: _425  and  _427
REMARK  153  A    between atoms: _427  and  _428
REMARK  154  A    between atoms: _427  and  _430
REMARK  155  A    between atoms: _430  and  _431
REMARK  156  A    between atoms: _436  and  _438
REMARK  157  A    between atoms: _438  and  _439
REMARK  158  A    between atoms: _438  and  _441
REMARK  159  A    between atoms: _441  and  _442
REMARK  160  A    between atoms: _442  and  _443
REMARK  161  A    between atoms: _443  and  _444
REMARK                            x       y       z     vdW  Elec       q    Type
REMARK                         _______ _______ _______ _____ _____    ______ ____
ROOT
ATOM      1  CA  TRP A   2       7.587  -1.314  11.265  0.00  0.00    +0.141 C 
ENDROOT
BRANCH   1   3
ATOM      2  C   HIS A   1       8.880  -0.529   9.352  0.00  0.00    +0.239 C 
ATOM      3  N   TRP A   2       8.118  -0.259  10.406  0.00  0.00    -0.298 N 
ATOM      4  H   TRP A   2       7.893   0.732  10.626  0.00  0.00    +0.150 HD
ATOM      5  O   HIS A   1       9.223  -1.674   9.055  0.00  0.00    -0.274 OA
BRANCH   2   6
ATOM      6  CA  HIS A   1       9.357   0.676   8.523  0.00  0.00    +0.151 C 
BRANCH   6   7
ATOM      7  N   HIS A   1      10.679   0.422   7.956  0.00  0.00    -0.238 NA
ATOM      8  H   HIS A   1      10.811   0.490   6.927  0.00  0.00    +0.142 HD
ENDBRANCH   6   7
BRANCH   6   9
ATOM      9  CB  HIS A   1       8.364   0.966   7.388  0.00  0.00    +0.074 C 
BRANCH   9  10
ATOM     10  CG  HIS A   1       7.083   1.597   7.838  0.00  0.00    +0.082 A 
ATOM     11  ND1 HIS A   1       7.025   2.873   8.356  0.00  0.00    -0.227 NA
ATOM     12  CE1 HIS A   1       5.771   3.173   8.647  0.00  0.00    +0.199 A 
ATOM     13  NE2 HIS A   1       5.014   2.137   8.336  0.00  0.00    -0.221 NA
ATOM     14  CD2 HIS A   1       5.809   1.137   7.830  0.00  0.00    +0.115 A 
ENDBRANCH   9  10
ENDBRANCH   6   9
ENDBRANCH   2   6
ENDBRANCH   1   3
BRANCH   1  15
ATOM     15  C   TRP A   2       6.647  -2.229  10.489  0.00  0.00    +0.227 C 
ATOM     16  O   TRP A   2       6.070  -1.823   9.463  0.00  0.00    -0.286 OA
ENDBRANCH   1  15
BRANCH   1  17
ATOM     17  CB  TRP A   2       6.839  -0.710  12.467  0.00  0.00    +0.056 C 
BRANCH  17  18
ATOM     18  CG  TRP A   2       5.585   0.076  12.123  0.00  0.00    -0.002 A 
ATOM     19  CD2 TRP A   2       4.234  -0.428  12.059  0.00  0.00    +0.013 A 
ATOM     20  CE3 TRP A   2       3.655  -1.689  12.263  0.00  0.00    +0.001 A 
ATOM     21  CZ3 TRP A   2       2.272  -1.826  12.109  0.00  0.00    +0.000 A 
ATOM     22  CH2 TRP A   2       1.465  -0.720  11.755  0.00  0.00    +0.001 A 
ATOM     23  CZ2 TRP A   2       2.007   0.525  11.553  0.00  0.00    +0.017 A 
ATOM     24  CE2 TRP A   2       3.398   0.660  11.708  0.00  0.00    +0.056 A 
ATOM     25  NE1 TRP A   2       4.201   1.767  11.574  0.00  0.00    -0.352 N 
ATOM     26  HE1 TRP A   2       3.874   2.722  11.325  0.00  0.00    +0.166 HD
ATOM     27  CD1 TRP A   2       5.509   1.411  11.822  0.00  0.00    +0.068 A 
ENDBRANCH  17  18
ENDBRANCH   1  17
TORSDOF 8
REMARK  Name = ../refined-set-2016/1g53/1g53_pocket.pdb
REMARK  161 active torsions:
REMARK  status: ('A' for Active; 'I' for Inactive)
REMARK    1  A    between atoms: _1  and  _3
REMARK    2  A    between atoms: _3  and  _4
REMARK    3  A    between atoms: _3  and  _6
REMARK    4  A    between atoms: _6  and  _7
REMARK    5  A    between atoms: _12  and  _14
REMARK    6  A    between atoms: _14  and  _15
REMARK    7  A    between atoms: _14  and  _17
REMARK    8  A    between atoms: _17  and  _18
REMARK    9  A    between atoms: _28  and  _30
REMARK   10  A    between atoms: _30  and  _31
REMARK   11  A    between atoms: _30  and  _33
REMARK   12  A    between atoms: _33  and  _34
REMARK   13  A    between atoms: _39  and  _40
REMARK   14  A    between atoms: _42  and  _44
REMARK   15  A    between atoms: _44  and  _45
REMARK   16  A    between atoms: _44  and  _47
REMARK   17  A    between atoms: _47  and  _48
REMARK   18  A    between atoms: _54  and  _56
REMARK   19  A    between atoms: _56  and  _57
REMARK   20  A    between atoms: _56  and  _59
REMARK   21  A    between atoms: _59  and  _60
REMARK   22  A    between atoms: _63  and  _64
REMARK   23  A    between atoms: _69  and  _71
REMARK   24  A    between atoms: _71  and  _72
REMARK   25  A    between atoms: _71  and  _74
REMARK   26  A    between atoms: _74  and  _75
REMARK   27  A    between atoms: _80  and  _82
REMARK   28  A    between atoms: _82  and  _83
REMARK   29  A    between atoms: _82  and  _85
REMARK   30  A    between atoms: _85  and  _86
REMARK   31  A    between atoms: _91  and  _93
REMARK   32  A    between atoms: _93  and  _94
REMARK   33  A    between atoms: _97  and  _99
REMARK   34  A    between atoms: _99  and  _100
REMARK   35  A    between atoms: _99  and  _102
REMARK   36  A    between atoms: _102  and  _103
REMARK   37  A    between atoms: _108  and  _110
REMARK   38  A    between atoms: _110  and  _111
REMARK   39  A    between atoms: _110  and  _113
REMARK   40  A    between atoms: _113  and  _114
REMARK   41  A    between atoms: _117  and  _119
REMARK   42  A    between atoms: _119  and  _120
REMARK   43  A    between atoms: _119  and  _122
REMARK   44  A    between atoms: _122  and  _123
REMARK   45  A    between atoms: _123  and  _124
REMARK   46  A    between atoms: _129  and  _131
REMARK   47  A    between atoms: _131  and  _132
REMARK   48  A    between atoms: _131  and  _134
REMARK   49  A    between atoms: _134  and  _135
REMARK   50  A    between atoms: _141  and  _143
REMARK   51  A    between atoms: _154  and  _157
REMARK   52  A    between atoms: _157  and  _158
REMARK   53  A    between atoms: _166  and  _167
REMARK   54  A    between atoms: _175  and  _177
REMARK   55  A    between atoms: _177  and  _178
REMARK   56  A    between atoms: _177  and  _180
REMARK   57  A    between atoms: _180  and  _181
REMARK   58  A    between atoms: _181  and  _182
REMARK   59  A    between atoms: _185  and  _187
REMARK   60  A    between atoms: _187  and  _188
REMARK   61  A    between atoms: _187  and  _190
REMARK   62  A    between atoms: _190  and  _191
REMARK   63  A    between atoms: _196  and  _198
REMARK   64  A    between atoms: _198  and  _199
REMARK   65  A    between atoms: _198  and  _201
REMARK   66  A    between atoms: _201  and  _202
REMARK   67  A    between atoms: _202  and  _203
REMARK   68  A    between atoms: _206  and  _208
REMARK   69  A    between atoms: _208  and  _209
REMARK   70  A    between atoms: _208  and  _211
REMARK   71  A    between atoms: _211  and  _212
REMARK   72  A    between atoms: _215  and  _217
REMARK   73  A    between atoms: _217  and  _218
REMARK   74  A    between atoms: _217  and  _220
REMARK   75  A    between atoms: _220  and  _221
REMARK   76  A    between atoms: _222  and  ZN_453
REMARK   77  A    between atoms: _226  and  _228
REMARK   78  A    between atoms: _228  and  _229
REMARK   79  A    between atoms: _228  and  _231
REMARK   80  A    between atoms: _231  and  _232
REMARK   81  A    between atoms: _235  and  _237
REMARK   82  A    between atoms: _237  and  _238
REMARK   83  A    between atoms: _237  and  _240
REMARK   84  A    between atoms: _243  and  _245
REMARK   85  A    between atoms: _245  and  _246
REMARK   86  A    between atoms: _245  and  _248
REMARK   87  A    between atoms: _248  and  _249
REMARK   88  A    between atoms: _254  and  _256
REMARK   89  A    between atoms: _256  and  _257
REMARK   90  A    between atoms: _256  and  _259
REMARK   91  A    between atoms: _259  and  _260
REMARK   92  A    between atoms: _266  and  _268
REMARK   93  A    between atoms: _268  and  _269
REMARK   94  A    between atoms: _271  and  _273
REMARK   95  A    between atoms: _273  and  _274
REMARK   96  A    between atoms: _277  and  _279
REMARK   97  A    between atoms: _279  and  _280
REMARK   98  A    between atoms: _279  and  _282
REMARK   99  A    between atoms: _285  and  _287
REMARK  100  A    between atoms: _287  and  _288
REMARK  101  A    between atoms: _287  and  _290
REMARK  102  A    between atoms: _290  and  _291
REMARK  103  A    between atoms: _291  and  _292
REMARK  104  A    between atoms: _297  and  _299
REMARK  105  A    between atoms: _299  and  _300
REMARK  106  A    between atoms: _299  and  _302
REMARK  107  A    between atoms: _302  and  _303
REMARK  108  A    between atoms: _306  and  _308
REMARK  109  A    between atoms: _308  and  _309
REMARK  110  A    between atoms: _312  and  _314
REMARK  111  A    between atoms: _314  and  _315
REMARK  112  A    between atoms: _314  and  _317
REMARK  113  A    between atoms: _320  and  _322
REMARK  114  A    between atoms: _322  and  _323
REMARK  115  A    between atoms: _322  and  _325
REMARK  116  A    between atoms: _325  and  _326
REMARK  117  A    between atoms: _329  and  _331
REMARK  118  A    between atoms: _331  and  _332
REMARK  119  A    between atoms: _334  and  _336
REMARK  120  A    between atoms: _336  and  _337
REMARK  121  A    between atoms: _336  and  _339
REMARK  122  A    between atoms: _339  and  _340
REMARK  123  A    between atoms: _342  and  _344
REMARK  124  A    between atoms: _344  and  _345
REMARK  125  A    between atoms: _344  and  _347
REMARK  126  A    between atoms: _347  and  _348
REMARK  127  A    between atoms: _351  and  _353
REMARK  128  A    between atoms: _353  and  _354
REMARK  129  A    between atoms: _353  and  _356
REMARK  130  A    between atoms: _356  and  _357
REMARK  131  A    between atoms: _360  and  _362
REMARK  132  A    between atoms: _362  and  _363
REMARK  133  A    between atoms: _362  and  _365
REMARK  134  A    between atoms: _365  and  _366
REMARK  135  A    between atoms: _370  and  _371
REMARK  136  A    between atoms: _377  and  _378
REMARK  137  A    between atoms: _383  and  _385
REMARK  138  A    between atoms: _385  and  _386
REMARK  139  A    between atoms: _385  and  _388
REMARK  140  A    between atoms: _388  and  _389
REMARK  141  A    between atoms: _392  and  _394
REMARK  142  A    between atoms: _394  and  _395
REMARK  143  A    between atoms: _394  and  _397
REMARK  144  A    between atoms: _397  and  _398
REMARK  145  A    between atoms: _401  and  _403
REMARK  146  A    between atoms: _403  and  _404
REMARK  147  A    between atoms: _403  and  _406
REMARK  148  A    between atoms: _409  and  _411
REMARK  149  A    between atoms: _411  and  _412
REMARK  150  A    between atoms: _411  and  _414
REMARK  151  A    between atoms: _414  and  _415
REMARK  152  A    between atoms: _425  and  _427
REMARK  153  A    between atoms: _427  and  _428
REMARK  154  A    between atoms: _427  and  _430
REMARK  155  A    between atoms: _430  and  _431
REMARK  156  A    between atoms: _436  and  _438
REMARK  157  A    between atoms: _438  and  _439
REMARK  158  A    between atoms: _438  and  _441
REMARK  159  A    between atoms: _441  and  _442
REMARK  160  A    between atoms: _442  and  _443
REMARK  161  A    between atoms: _443  and  _444
REMARK                            x       y       z     vdW  Elec       q    Type
REMARK                         _______ _______ _______ _____ _____    ______ ____
ROOT
ATOM      1  CG  TYR A   1       1.930  -7.023  11.966  0.00  0.00    -0.020 A 
ATOM      2  CD2 TYR A   1       1.625  -6.958  13.335  0.00  0.00    -0.001 A 
ATOM      3  CE2 TYR A   1       0.787  -5.962  13.830  0.00  0.00    +0.036 A 
ATOM      4  CZ  TYR A   1       0.236  -5.021  12.949  0.00  0.00    +0.134 A 
ATOM      5  CE1 TYR A   1       0.526  -5.078  11.580  0.00  0.00    +0.036 A 
ATOM      6  CD1 TYR A   1       1.367  -6.071  11.106  0.00  0.00    -0.001 A 
ENDROOT
BRANCH   4   7
ATOM      7  OH  TYR A   1      -0.601  -4.024  13.431  0.00  0.00    -0.506 OA
ATOM      8  HH  TYR A   1      -0.702  -4.125  14.411  0.00  0.00    +0.292 HD
ENDBRANCH   4   7
BRANCH   1   9
ATOM      9  CB  TYR A   1       2.876  -8.080  11.433  0.00  0.00    +0.051 C 
BRANCH   9  10
ATOM     10  CA  TYR A   1       4.354  -7.734  11.648  0.00  0.00    +0.137 C 
BRANCH  10  11
ATOM     11  N   TYR A   1       4.770  -6.621  10.812  0.00  0.00    -0.239 NA
ATOM     12  H   TYR A   1       4.762  -6.734   9.778  0.00  0.00    +0.142 HD
ENDBRANCH  10  11
BRANCH  10  13
ATOM     13  C   TYR A   1       5.217  -8.942  11.376  0.00  0.00    +0.224 C 
ATOM     14  O   TYR A   1       4.947 -10.029  11.870  0.00  0.00    -0.287 OA
ENDBRANCH  10  13
ENDBRANCH   9  10
ENDBRANCH   1   9
TORSDOF 5
REMARK  Name = ../refined-set-2016/1g53/1g53_pocket.pdb
REMARK  161 active torsions:
REMARK  status: ('A' for Active; 'I' for Inactive)
REMARK    1  A    between atoms: _1  and  _3
REMARK    2  A    between atoms: _3  and  _4
REMARK    3  A    between atoms: _3  and  _6
REMARK    4  A    between atoms: _6  and  _7
REMARK    5  A    between atoms: _12  and  _14
REMARK    6  A    between atoms: _14  and  _15
REMARK    7  A    between atoms: _14  and  _17
REMARK    8  A    between atoms: _17  and  _18
REMARK    9  A    between atoms: _28  and  _30
REMARK   10  A    between atoms: _30  and  _31
REMARK   11  A    between atoms: _30  and  _33
REMARK   12  A    between atoms: _33  and  _34
REMARK   13  A    between atoms: _39  and  _40
REMARK   14  A    between atoms: _42  and  _44
REMARK   15  A    between atoms: _44  and  _45
REMARK   16  A    between atoms: _44  and  _47
REMARK   17  A    between atoms: _47  and  _48
REMARK   18  A    between atoms: _54  and  _56
REMARK   19  A    between atoms: _56  and  _57
REMARK   20  A    between atoms: _56  and  _59
REMARK   21  A    between atoms: _59  and  _60
REMARK   22  A    between atoms: _63  and  _64
REMARK   23  A    between atoms: _69  and  _71
REMARK   24  A    between atoms: _71  and  _72
REMARK   25  A    between atoms: _71  and  _74
REMARK   26  A    between atoms: _74  and  _75
REMARK   27  A    between atoms: _80  and  _82
REMARK   28  A    between atoms: _82  and  _83
REMARK   29  A    between atoms: _82  and  _85
REMARK   30  A    between atoms: _85  and  _86
REMARK   31  A    between atoms: _91  and  _93
REMARK   32  A    between atoms: _93  and  _94
REMARK   33  A    between atoms: _97  and  _99
REMARK   34  A    between atoms: _99  and  _100
REMARK   35  A    between atoms: _99  and  _102
REMARK   36  A    between atoms: _102  and  _103
REMARK   37  A    between atoms: _108  and  _110
REMARK   38  A    between atoms: _110  and  _111
REMARK   39  A    between atoms: _110  and  _113
REMARK   40  A    between atoms: _113  and  _114
REMARK   41  A    between atoms: _117  and  _119
REMARK   42  A    between atoms: _119  and  _120
REMARK   43  A    between atoms: _119  and  _122
REMARK   44  A    between atoms: _122  and  _123
REMARK   45  A    between atoms: _123  and  _124
REMARK   46  A    between atoms: _129  and  _131
REMARK   47  A    between atoms: _131  and  _132
REMARK   48  A    between atoms: _131  and  _134
REMARK   49  A    between atoms: _134  and  _135
REMARK   50  A    between atoms: _141  and  _143
REMARK   51  A    between atoms: _154  and  _157
REMARK   52  A    between atoms: _157  and  _158
REMARK   53  A    between atoms: _166  and  _167
REMARK   54  A    between atoms: _175  and  _177
REMARK   55  A    between atoms: _177  and  _178
REMARK   56  A    between atoms: _177  and  _180
REMARK   57  A    between atoms: _180  and  _181
REMARK   58  A    between atoms: _181  and  _182
REMARK   59  A    between atoms: _185  and  _187
REMARK   60  A    between atoms: _187  and  _188
REMARK   61  A    between atoms: _187  and  _190
REMARK   62  A    between atoms: _190  and  _191
REMARK   63  A    between atoms: _196  and  _198
REMARK   64  A    between atoms: _198  and  _199
REMARK   65  A    between atoms: _198  and  _201
REMARK   66  A    between atoms: _201  and  _202
REMARK   67  A    between atoms: _202  and  _203
REMARK   68  A    between atoms: _206  and  _208
REMARK   69  A    between atoms: _208  and  _209
REMARK   70  A    between atoms: _208  and  _211
REMARK   71  A    between atoms: _211  and  _212
REMARK   72  A    between atoms: _215  and  _217
REMARK   73  A    between atoms: _217  and  _218
REMARK   74  A    between atoms: _217  and  _220
REMARK   75  A    between atoms: _220  and  _221
REMARK   76  A    between atoms: _222  and  ZN_453
REMARK   77  A    between atoms: _226  and  _228
REMARK   78  A    between atoms: _228  and  _229
REMARK   79  A    between atoms: _228  and  _231
REMARK   80  A    between atoms: _231  and  _232
REMARK   81  A    between atoms: _235  and  _237
REMARK   82  A    between atoms: _237  and  _238
REMARK   83  A    between atoms: _237  and  _240
REMARK   84  A    between atoms: _243  and  _245
REMARK   85  A    between atoms: _245  and  _246
REMARK   86  A    between atoms: _245  and  _248
REMARK   87  A    between atoms: _248  and  _249
REMARK   88  A    between atoms: _254  and  _256
REMARK   89  A    between atoms: _256  and  _257
REMARK   90  A    between atoms: _256  and  _259
REMARK   91  A    between atoms: _259  and  _260
REMARK   92  A    between atoms: _266  and  _268
REMARK   93  A    between atoms: _268  and  _269
REMARK   94  A    between atoms: _271  and  _273
REMARK   95  A    between atoms: _273  and  _274
REMARK   96  A    between atoms: _277  and  _279
REMARK   97  A    between atoms: _279  and  _280
REMARK   98  A    between atoms: _279  and  _282
REMARK   99  A    between atoms: _285  and  _287
REMARK  100  A    between atoms: _287  and  _288
REMARK  101  A    between atoms: _287  and  _290
REMARK  102  A    between atoms: _290  and  _291
REMARK  103  A    between atoms: _291  and  _292
REMARK  104  A    between atoms: _297  and  _299
REMARK  105  A    between atoms: _299  and  _300
REMARK  106  A    between atoms: _299  and  _302
REMARK  107  A    between atoms: _302  and  _303
REMARK  108  A    between atoms: _306  and  _308
REMARK  109  A    between atoms: _308  and  _309
REMARK  110  A    between atoms: _312  and  _314
REMARK  111  A    between atoms: _314  and  _315
REMARK  112  A    between atoms: _314  and  _317
REMARK  113  A    between atoms: _320  and  _322
REMARK  114  A    between atoms: _322  and  _323
REMARK  115  A    between atoms: _322  and  _325
REMARK  116  A    between atoms: _325  and  _326
REMARK  117  A    between atoms: _329  and  _331
REMARK  118  A    between atoms: _331  and  _332
REMARK  119  A    between atoms: _334  and  _336
REMARK  120  A    between atoms: _336  and  _337
REMARK  121  A    between atoms: _336  and  _339
REMARK  122  A    between atoms: _339  and  _340
REMARK  123  A    between atoms: _342  and  _344
REMARK  124  A    between atoms: _344  and  _345
REMARK  125  A    between atoms: _344  and  _347
REMARK  126  A    between atoms: _347  and  _348
REMARK  127  A    between atoms: _351  and  _353
REMARK  128  A    between atoms: _353  and  _354
REMARK  129  A    between atoms: _353  and  _356
REMARK  130  A    between atoms: _356  and  _357
REMARK  131  A    between atoms: _360  and  _362
REMARK  132  A    between atoms: _362  and  _363
REMARK  133  A    between atoms: _362  and  _365
REMARK  134  A    between atoms: _365  and  _366
REMARK  135  A    between atoms: _370  and  _371
REMARK  136  A    between atoms: _377  and  _378
REMARK  137  A    between atoms: _383  and  _385
REMARK  138  A    between atoms: _385  and  _386
REMARK  139  A    between atoms: _385  and  _388
REMARK  140  A    between atoms: _388  and  _389
REMARK  141  A    between atoms: _392  and  _394
REMARK  142  A    between atoms: _394  and  _395
REMARK  143  A    between atoms: _394  and  _397
REMARK  144  A    between atoms: _397  and  _398
REMARK  145  A    between atoms: _401  and  _403
REMARK  146  A    between atoms: _403  and  _404
REMARK  147  A    between atoms: _403  and  _406
REMARK  148  A    between atoms: _409  and  _411
REMARK  149  A    between atoms: _411  and  _412
REMARK  150  A    between atoms: _411  and  _414
REMARK  151  A    between atoms: _414  and  _415
REMARK  152  A    between atoms: _425  and  _427
REMARK  153  A    between atoms: _427  and  _428
REMARK  154  A    between atoms: _427  and  _430
REMARK  155  A    between atoms: _430  and  _431
REMARK  156  A    between atoms: _436  and  _438
REMARK  157  A    between atoms: _438  and  _439
REMARK  158  A    between atoms: _438  and  _441
REMARK  159  A    between atoms: _441  and  _442
REMARK  160  A    between atoms: _442  and  _443
REMARK  161  A    between atoms: _443  and  _444
REMARK                            x       y       z     vdW  Elec       q    Type
REMARK                         _______ _______ _______ _____ _____    ______ ____
ROOT
ATOM      1  CB  PHE A   1       7.472   3.346  19.128  0.00  0.00    +0.051 C 
ENDROOT
BRANCH   1   2
ATOM      2  CG  PHE A   1       7.379   3.636  17.661  0.00  0.00    -0.020 A 
ATOM      3  CD2 PHE A   1       7.020   4.902  17.216  0.00  0.00    -0.004 A 
ATOM      4  CE2 PHE A   1       7.050   5.212  15.851  0.00  0.00    -0.000 A 
ATOM      5  CZ  PHE A   1       7.439   4.244  14.931  0.00  0.00    -0.000 A 
ATOM      6  CE1 PHE A   1       7.789   2.977  15.370  0.00  0.00    -0.000 A 
ATOM      7  CD1 PHE A   1       7.756   2.676  16.726  0.00  0.00    -0.004 A 
ENDBRANCH   1   2
BRANCH   1   8
ATOM      8  CA  PHE A   1       8.811   3.764  19.739  0.00  0.00    +0.137 C 
BRANCH   8   9
ATOM      9  N   PHE A   1       9.936   3.190  18.985  0.00  0.00    -0.239 NA
ATOM     10  H   PHE A   1      10.120   2.170  19.068  0.00  0.00    +0.142 HD
ENDBRANCH   8   9
BRANCH   8  11
ATOM     11  C   PHE A   1       8.939   3.241  21.148  0.00  0.00    +0.224 C 
ATOM     12  O   PHE A   1       8.346   2.229  21.515  0.00  0.00    -0.287 OA
ENDBRANCH   8  11
ENDBRANCH   1   8
TORSDOF 4
REMARK  Name = ../refined-set-2016/1g53/1g53_pocket.pdb
REMARK  161 active torsions:
REMARK  status: ('A' for Active; 'I' for Inactive)
REMARK    1  A    between atoms: _1  and  _3
REMARK    2  A    between atoms: _3  and  _4
REMARK    3  A    between atoms: _3  and  _6
REMARK    4  A    between atoms: _6  and  _7
REMARK    5  A    between atoms: _12  and  _14
REMARK    6  A    between atoms: _14  and  _15
REMARK    7  A    between atoms: _14  and  _17
REMARK    8  A    between atoms: _17  and  _18
REMARK    9  A    between atoms: _28  and  _30
REMARK   10  A    between atoms: _30  and  _31
REMARK   11  A    between atoms: _30  and  _33
REMARK   12  A    between atoms: _33  and  _34
REMARK   13  A    between atoms: _39  and  _40
REMARK   14  A    between atoms: _42  and  _44
REMARK   15  A    between atoms: _44  and  _45
REMARK   16  A    between atoms: _44  and  _47
REMARK   17  A    between atoms: _47  and  _48
REMARK   18  A    between atoms: _54  and  _56
REMARK   19  A    between atoms: _56  and  _57
REMARK   20  A    between atoms: _56  and  _59
REMARK   21  A    between atoms: _59  and  _60
REMARK   22  A    between atoms: _63  and  _64
REMARK   23  A    between atoms: _69  and  _71
REMARK   24  A    between atoms: _71  and  _72
REMARK   25  A    between atoms: _71  and  _74
REMARK   26  A    between atoms: _74  and  _75
REMARK   27  A    between atoms: _80  and  _82
REMARK   28  A    between atoms: _82  and  _83
REMARK   29  A    between atoms: _82  and  _85
REMARK   30  A    between atoms: _85  and  _86
REMARK   31  A    between atoms: _91  and  _93
REMARK   32  A    between atoms: _93  and  _94
REMARK   33  A    between atoms: _97  and  _99
REMARK   34  A    between atoms: _99  and  _100
REMARK   35  A    between atoms: _99  and  _102
REMARK   36  A    between atoms: _102  and  _103
REMARK   37  A    between atoms: _108  and  _110
REMARK   38  A    between atoms: _110  and  _111
REMARK   39  A    between atoms: _110  and  _113
REMARK   40  A    between atoms: _113  and  _114
REMARK   41  A    between atoms: _117  and  _119
REMARK   42  A    between atoms: _119  and  _120
REMARK   43  A    between atoms: _119  and  _122
REMARK   44  A    between atoms: _122  and  _123
REMARK   45  A    between atoms: _123  and  _124
REMARK   46  A    between atoms: _129  and  _131
REMARK   47  A    between atoms: _131  and  _132
REMARK   48  A    between atoms: _131  and  _134
REMARK   49  A    between atoms: _134  and  _135
REMARK   50  A    between atoms: _141  and  _143
REMARK   51  A    between atoms: _154  and  _157
REMARK   52  A    between atoms: _157  and  _158
REMARK   53  A    between atoms: _166  and  _167
REMARK   54  A    between atoms: _175  and  _177
REMARK   55  A    between atoms: _177  and  _178
REMARK   56  A    between atoms: _177  and  _180
REMARK   57  A    between atoms: _180  and  _181
REMARK   58  A    between atoms: _181  and  _182
REMARK   59  A    between atoms: _185  and  _187
REMARK   60  A    between atoms: _187  and  _188
REMARK   61  A    between atoms: _187  and  _190
REMARK   62  A    between atoms: _190  and  _191
REMARK   63  A    between atoms: _196  and  _198
REMARK   64  A    between atoms: _198  and  _199
REMARK   65  A    between atoms: _198  and  _201
REMARK   66  A    between atoms: _201  and  _202
REMARK   67  A    between atoms: _202  and  _203
REMARK   68  A    between atoms: _206  and  _208
REMARK   69  A    between atoms: _208  and  _209
REMARK   70  A    between atoms: _208  and  _211
REMARK   71  A    between atoms: _211  and  _212
REMARK   72  A    between atoms: _215  and  _217
REMARK   73  A    between atoms: _217  and  _218
REMARK   74  A    between atoms: _217  and  _220
REMARK   75  A    between atoms: _220  and  _221
REMARK   76  A    between atoms: _222  and  ZN_453
REMARK   77  A    between atoms: _226  and  _228
REMARK   78  A    between atoms: _228  and  _229
REMARK   79  A    between atoms: _228  and  _231
REMARK   80  A    between atoms: _231  and  _232
REMARK   81  A    between atoms: _235  and  _237
REMARK   82  A    between atoms: _237  and  _238
REMARK   83  A    between atoms: _237  and  _240
REMARK   84  A    between atoms: _243  and  _245
REMARK   85  A    between atoms: _245  and  _246
REMARK   86  A    between atoms: _245  and  _248
REMARK   87  A    between atoms: _248  and  _249
REMARK   88  A    between atoms: _254  and  _256
REMARK   89  A    between atoms: _256  and  _257
REMARK   90  A    between atoms: _256  and  _259
REMARK   91  A    between atoms: _259  and  _260
REMARK   92  A    between atoms: _266  and  _268
REMARK   93  A    between atoms: _268  and  _269
REMARK   94  A    between atoms: _271  and  _273
REMARK   95  A    between atoms: _273  and  _274
REMARK   96  A    between atoms: _277  and  _279
REMARK   97  A    between atoms: _279  and  _280
REMARK   98  A    between atoms: _279  and  _282
REMARK   99  A    between atoms: _285  and  _287
REMARK  100  A    between atoms: _287  and  _288
REMARK  101  A    between atoms: _287  and  _290
REMARK  102  A    between atoms: _290  and  _291
REMARK  103  A    between atoms: _291  and  _292
REMARK  104  A    between atoms: _297  and  _299
REMARK  105  A    between atoms: _299  and  _300
REMARK  106  A    between atoms: _299  and  _302
REMARK  107  A    between atoms: _302  and  _303
REMARK  108  A    between atoms: _306  and  _308
REMARK  109  A    between atoms: _308  and  _309
REMARK  110  A    between atoms: _312  and  _314
REMARK  111  A    between atoms: _314  and  _315
REMARK  112  A    between atoms: _314  and  _317
REMARK  113  A    between atoms: _320  and  _322
REMARK  114  A    between atoms: _322  and  _323
REMARK  115  A    between atoms: _322  and  _325
REMARK  116  A    between atoms: _325  and  _326
REMARK  117  A    between atoms: _329  and  _331
REMARK  118  A    between atoms: _331  and  _332
REMARK  119  A    between atoms: _334  and  _336
REMARK  120  A    between atoms: _336  and  _337
REMARK  121  A    between atoms: _336  and  _339
REMARK  122  A    between atoms: _339  and  _340
REMARK  123  A    between atoms: _342  and  _344
REMARK  124  A    between atoms: _344  and  _345
REMARK  125  A    between atoms: _344  and  _347
REMARK  126  A    between atoms: _347  and  _348
REMARK  127  A    between atoms: _351  and  _353
REMARK  128  A    between atoms: _353  and  _354
REMARK  129  A    between atoms: _353  and  _356
REMARK  130  A    between atoms: _356  and  _357
REMARK  131  A    between atoms: _360  and  _362
REMARK  132  A    between atoms: _362  and  _363
REMARK  133  A    between atoms: _362  and  _365
REMARK  134  A    between atoms: _365  and  _366
REMARK  135  A    between atoms: _370  and  _371
REMARK  136  A    between atoms: _377  and  _378
REMARK  137  A    between atoms: _383  and  _385
REMARK  138  A    between atoms: _385  and  _386
REMARK  139  A    between atoms: _385  and  _388
REMARK  140  A    between atoms: _388  and  _389
REMARK  141  A    between atoms: _392  and  _394
REMARK  142  A    between atoms: _394  and  _395
REMARK  143  A    between atoms: _394  and  _397
REMARK  144  A    between atoms: _397  and  _398
REMARK  145  A    between atoms: _401  and  _403
REMARK  146  A    between atoms: _403  and  _404
REMARK  147  A    between atoms: _403  and  _406
REMARK  148  A    between atoms: _409  and  _411
REMARK  149  A    between atoms: _411  and  _412
REMARK  150  A    between atoms: _411  and  _414
REMARK  151  A    between atoms: _414  and  _415
REMARK  152  A    between atoms: _425  and  _427
REMARK  153  A    between atoms: _427  and  _428
REMARK  154  A    between atoms: _427  and  _430
REMARK  155  A    between atoms: _430  and  _431
REMARK  156  A    between atoms: _436  and  _438
REMARK  157  A    between atoms: _438  and  _439
REMARK  158  A    between atoms: _438  and  _441
REMARK  159  A    between atoms: _441  and  _442
REMARK  160  A    between atoms: _442  and  _443
REMARK  161  A    between atoms: _443  and  _444
REMARK                            x       y       z     vdW  Elec       q    Type
REMARK                         _______ _______ _______ _____ _____    ______ ____
ROOT
ATOM      1  C   SER A   1      -2.299  -3.109  23.394  0.00  0.00    +0.244 C 
ATOM      2  N   PRO A   2      -2.934  -4.260  23.101  0.00  0.00    -0.273 N 
ATOM      3  CA  PRO A   2      -4.164  -4.727  23.750  0.00  0.00    +0.140 C 
ATOM      4  CB  PRO A   2      -4.718  -5.714  22.739  0.00  0.00    +0.030 C 
ATOM      5  CG  PRO A   2      -3.449  -6.395  22.254  0.00  0.00    +0.024 C 
ATOM      6  CD  PRO A   2      -2.499  -5.213  22.059  0.00  0.00    +0.094 C 
ATOM      7  O   SER A   1      -1.330  -2.699  22.743  0.00  0.00    -0.273 OA
ENDROOT
BRANCH   3   8
ATOM      8  C   PRO A   2      -3.741  -5.462  24.998  0.00  0.00    +0.227 C 
ATOM      9  O   PRO A   2      -2.538  -5.590  25.225  0.00  0.00    -0.286 OA
ENDBRANCH   3   8
BRANCH   1  10
ATOM     10  CA  SER A   1      -2.902  -2.238  24.475  0.00  0.00    +0.175 C 
BRANCH  10  11
ATOM     11  N   SER A   1      -1.860  -1.326  24.884  0.00  0.00    -0.236 NA
ATOM     12  H   SER A   1      -1.404  -0.725  24.168  0.00  0.00    +0.142 HD
ENDBRANCH  10  11
BRANCH  10  13
ATOM     13  CB  SER A   1      -4.084  -1.461  23.912  0.00  0.00    +0.163 C 
BRANCH  13  14
ATOM     14  OG  SER A   1      -4.664  -0.659  24.917  0.00  0.00    -0.380 OA
ATOM     15  H   SER A   1      -4.978  -1.236  25.658  0.00  0.00    +0.211 HD
ENDBRANCH  13  14
ENDBRANCH  10  13
ENDBRANCH   1  10
TORSDOF 5
REMARK  Name = ../refined-set-2016/1g53/1g53_pocket.pdb
REMARK  161 active torsions:
REMARK  status: ('A' for Active; 'I' for Inactive)
REMARK    1  A    between atoms: _1  and  _3
REMARK    2  A    between atoms: _3  and  _4
REMARK    3  A    between atoms: _3  and  _6
REMARK    4  A    between atoms: _6  and  _7
REMARK    5  A    between atoms: _12  and  _14
REMARK    6  A    between atoms: _14  and  _15
REMARK    7  A    between atoms: _14  and  _17
REMARK    8  A    between atoms: _17  and  _18
REMARK    9  A    between atoms: _28  and  _30
REMARK   10  A    between atoms: _30  and  _31
REMARK   11  A    between atoms: _30  and  _33
REMARK   12  A    between atoms: _33  and  _34
REMARK   13  A    between atoms: _39  and  _40
REMARK   14  A    between atoms: _42  and  _44
REMARK   15  A    between atoms: _44  and  _45
REMARK   16  A    between atoms: _44  and  _47
REMARK   17  A    between atoms: _47  and  _48
REMARK   18  A    between atoms: _54  and  _56
REMARK   19  A    between atoms: _56  and  _57
REMARK   20  A    between atoms: _56  and  _59
REMARK   21  A    between atoms: _59  and  _60
REMARK   22  A    between atoms: _63  and  _64
REMARK   23  A    between atoms: _69  and  _71
REMARK   24  A    between atoms: _71  and  _72
REMARK   25  A    between atoms: _71  and  _74
REMARK   26  A    between atoms: _74  and  _75
REMARK   27  A    between atoms: _80  and  _82
REMARK   28  A    between atoms: _82  and  _83
REMARK   29  A    between atoms: _82  and  _85
REMARK   30  A    between atoms: _85  and  _86
REMARK   31  A    between atoms: _91  and  _93
REMARK   32  A    between atoms: _93  and  _94
REMARK   33  A    between atoms: _97  and  _99
REMARK   34  A    between atoms: _99  and  _100
REMARK   35  A    between atoms: _99  and  _102
REMARK   36  A    between atoms: _102  and  _103
REMARK   37  A    between atoms: _108  and  _110
REMARK   38  A    between atoms: _110  and  _111
REMARK   39  A    between atoms: _110  and  _113
REMARK   40  A    between atoms: _113  and  _114
REMARK   41  A    between atoms: _117  and  _119
REMARK   42  A    between atoms: _119  and  _120
REMARK   43  A    between atoms: _119  and  _122
REMARK   44  A    between atoms: _122  and  _123
REMARK   45  A    between atoms: _123  and  _124
REMARK   46  A    between atoms: _129  and  _131
REMARK   47  A    between atoms: _131  and  _132
REMARK   48  A    between atoms: _131  and  _134
REMARK   49  A    between atoms: _134  and  _135
REMARK   50  A    between atoms: _141  and  _143
REMARK   51  A    between atoms: _154  and  _157
REMARK   52  A    between atoms: _157  and  _158
REMARK   53  A    between atoms: _166  and  _167
REMARK   54  A    between atoms: _175  and  _177
REMARK   55  A    between atoms: _177  and  _178
REMARK   56  A    between atoms: _177  and  _180
REMARK   57  A    between atoms: _180  and  _181
REMARK   58  A    between atoms: _181  and  _182
REMARK   59  A    between atoms: _185  and  _187
REMARK   60  A    between atoms: _187  and  _188
REMARK   61  A    between atoms: _187  and  _190
REMARK   62  A    between atoms: _190  and  _191
REMARK   63  A    between atoms: _196  and  _198
REMARK   64  A    between atoms: _198  and  _199
REMARK   65  A    between atoms: _198  and  _201
REMARK   66  A    between atoms: _201  and  _202
REMARK   67  A    between atoms: _202  and  _203
REMARK   68  A    between atoms: _206  and  _208
REMARK   69  A    between atoms: _208  and  _209
REMARK   70  A    between atoms: _208  and  _211
REMARK   71  A    between atoms: _211  and  _212
REMARK   72  A    between atoms: _215  and  _217
REMARK   73  A    between atoms: _217  and  _218
REMARK   74  A    between atoms: _217  and  _220
REMARK   75  A    between atoms: _220  and  _221
REMARK   76  A    between atoms: _222  and  ZN_453
REMARK   77  A    between atoms: _226  and  _228
REMARK   78  A    between atoms: _228  and  _229
REMARK   79  A    between atoms: _228  and  _231
REMARK   80  A    between atoms: _231  and  _232
REMARK   81  A    between atoms: _235  and  _237
REMARK   82  A    between atoms: _237  and  _238
REMARK   83  A    between atoms: _237  and  _240
REMARK   84  A    between atoms: _243  and  _245
REMARK   85  A    between atoms: _245  and  _246
REMARK   86  A    between atoms: _245  and  _248
REMARK   87  A    between atoms: _248  and  _249
REMARK   88  A    between atoms: _254  and  _256
REMARK   89  A    between atoms: _256  and  _257
REMARK   90  A    between atoms: _256  and  _259
REMARK   91  A    between atoms: _259  and  _260
REMARK   92  A    between atoms: _266  and  _268
REMARK   93  A    between atoms: _268  and  _269
REMARK   94  A    between atoms: _271  and  _273
REMARK   95  A    between atoms: _273  and  _274
REMARK   96  A    between atoms: _277  and  _279
REMARK   97  A    between atoms: _279  and  _280
REMARK   98  A    between atoms: _279  and  _282
REMARK   99  A    between atoms: _285  and  _287
REMARK  100  A    between atoms: _287  and  _288
REMARK  101  A    between atoms: _287  and  _290
REMARK  102  A    between atoms: _290  and  _291
REMARK  103  A    between atoms: _291  and  _292
REMARK  104  A    between atoms: _297  and  _299
REMARK  105  A    between atoms: _299  and  _300
REMARK  106  A    between atoms: _299  and  _302
REMARK  107  A    between atoms: _302  and  _303
REMARK  108  A    between atoms: _306  and  _308
REMARK  109  A    between atoms: _308  and  _309
REMARK  110  A    between atoms: _312  and  _314
REMARK  111  A    between atoms: _314  and  _315
REMARK  112  A    between atoms: _314  and  _317
REMARK  113  A    between atoms: _320  and  _322
REMARK  114  A    between atoms: _322  and  _323
REMARK  115  A    between atoms: _322  and  _325
REMARK  116  A    between atoms: _325  and  _326
REMARK  117  A    between atoms: _329  and  _331
REMARK  118  A    between atoms: _331  and  _332
REMARK  119  A    between atoms: _334  and  _336
REMARK  120  A    between atoms: _336  and  _337
REMARK  121  A    between atoms: _336  and  _339
REMARK  122  A    between atoms: _339  and  _340
REMARK  123  A    between atoms: _342  and  _344
REMARK  124  A    between atoms: _344  and  _345
REMARK  125  A    between atoms: _344  and  _347
REMARK  126  A    between atoms: _347  and  _348
REMARK  127  A    between atoms: _351  and  _353
REMARK  128  A    between atoms: _353  and  _354
REMARK  129  A    between atoms: _353  and  _356
REMARK  130  A    between atoms: _356  and  _357
REMARK  131  A    between atoms: _360  and  _362
REMARK  132  A    between atoms: _362  and  _363
REMARK  133  A    between atoms: _362  and  _365
REMARK  134  A    between atoms: _365  and  _366
REMARK  135  A    between atoms: _370  and  _371
REMARK  136  A    between atoms: _377  and  _378
REMARK  137  A    between atoms: _383  and  _385
REMARK  138  A    between atoms: _385  and  _386
REMARK  139  A    between atoms: _385  and  _388
REMARK  140  A    between atoms: _388  and  _389
REMARK  141  A    between atoms: _392  and  _394
REMARK  142  A    between atoms: _394  and  _395
REMARK  143  A    between atoms: _394  and  _397
REMARK  144  A    between atoms: _397  and  _398
REMARK  145  A    between atoms: _401  and  _403
REMARK  146  A    between atoms: _403  and  _404
REMARK  147  A    between atoms: _403  and  _406
REMARK  148  A    between atoms: _409  and  _411
REMARK  149  A    between atoms: _411  and  _412
REMARK  150  A    between atoms: _411  and  _414
REMARK  151  A    between atoms: _414  and  _415
REMARK  152  A    between atoms: _425  and  _427
REMARK  153  A    between atoms: _427  and  _428
REMARK  154  A    between atoms: _427  and  _430
REMARK  155  A    between atoms: _430  and  _431
REMARK  156  A    between atoms: _436  and  _438
REMARK  157  A    between atoms: _438  and  _439
REMARK  158  A    between atoms: _438  and  _441
REMARK  159  A    between atoms: _441  and  _442
REMARK  160  A    between atoms: _442  and  _443
REMARK  161  A    between atoms: _443  and  _444
REMARK                            x       y       z     vdW  Elec       q    Type
REMARK                         _______ _______ _______ _____ _____    ______ ____
ROOT
ATOM      1  CB  ASN A   1      -2.676   2.099   5.207  0.00  0.00    +0.110 C 
ENDROOT
BRANCH   1   2
ATOM      2  CG  ASN A   1      -2.950   1.295   6.477  0.00  0.00    +0.221 C 
ATOM      3  ND2 ASN A   1      -3.323   1.987   7.532  0.00  0.00    -0.329 N 
ATOM      4 HD21 ASN A   1      -3.516   1.501   8.431  0.00  0.00    +0.145 HD
ATOM      5 HD22 ASN A   1      -3.425   3.020   7.467  0.00  0.00    +0.145 HD
ATOM      6  OD1 ASN A   1      -2.816   0.072   6.506  0.00  0.00    -0.275 OA
ENDBRANCH   1   2
BRANCH   1   7
ATOM      7  CA  ASN A   1      -2.310   1.211   4.004  0.00  0.00    +0.142 C 
BRANCH   7   8
ATOM      8  N   ASN A   1      -3.454   0.406   3.588  0.00  0.00    -0.239 NA
ATOM      9  H   ASN A   1      -4.005  -0.115   4.300  0.00  0.00    +0.142 HD
ENDBRANCH   7   8
BRANCH   7  10
ATOM     10  C   ASN A   1      -1.041   0.414   4.300  0.00  0.00    +0.225 C 
ATOM     11  O   ASN A   1      -0.096   0.951   4.872  0.00  0.00    -0.287 OA
ENDBRANCH   7  10
ENDBRANCH   1   7
TORSDOF 4
REMARK  Name = ../refined-set-2016/1g53/1g53_pocket.pdb
REMARK  161 active torsions:
REMARK  status: ('A' for Active; 'I' for Inactive)
REMARK    1  A    between atoms: _1  and  _3
REMARK    2  A    between atoms: _3  and  _4
REMARK    3  A    between atoms: _3  and  _6
REMARK    4  A    between atoms: _6  and  _7
REMARK    5  A    between atoms: _12  and  _14
REMARK    6  A    between atoms: _14  and  _15
REMARK    7  A    between atoms: _14  and  _17
REMARK    8  A    between atoms: _17  and  _18
REMARK    9  A    between atoms: _28  and  _30
REMARK   10  A    between atoms: _30  and  _31
REMARK   11  A    between atoms: _30  and  _33
REMARK   12  A    between atoms: _33  and  _34
REMARK   13  A    between atoms: _39  and  _40
REMARK   14  A    between atoms: _42  and  _44
REMARK   15  A    between atoms: _44  and  _45
REMARK   16  A    between atoms: _44  and  _47
REMARK   17  A    between atoms: _47  and  _48
REMARK   18  A    between atoms: _54  and  _56
REMARK   19  A    between atoms: _56  and  _57
REMARK   20  A    between atoms: _56  and  _59
REMARK   21  A    between atoms: _59  and  _60
REMARK   22  A    between atoms: _63  and  _64
REMARK   23  A    between atoms: _69  and  _71
REMARK   24  A    between atoms: _71  and  _72
REMARK   25  A    between atoms: _71  and  _74
REMARK   26  A    between atoms: _74  and  _75
REMARK   27  A    between atoms: _80  and  _82
REMARK   28  A    between atoms: _82  and  _83
REMARK   29  A    between atoms: _82  and  _85
REMARK   30  A    between atoms: _85  and  _86
REMARK   31  A    between atoms: _91  and  _93
REMARK   32  A    between atoms: _93  and  _94
REMARK   33  A    between atoms: _97  and  _99
REMARK   34  A    between atoms: _99  and  _100
REMARK   35  A    between atoms: _99  and  _102
REMARK   36  A    between atoms: _102  and  _103
REMARK   37  A    between atoms: _108  and  _110
REMARK   38  A    between atoms: _110  and  _111
REMARK   39  A    between atoms: _110  and  _113
REMARK   40  A    between atoms: _113  and  _114
REMARK   41  A    between atoms: _117  and  _119
REMARK   42  A    between atoms: _119  and  _120
REMARK   43  A    between atoms: _119  and  _122
REMARK   44  A    between atoms: _122  and  _123
REMARK   45  A    between atoms: _123  and  _124
REMARK   46  A    between atoms: _129  and  _131
REMARK   47  A    between atoms: _131  and  _132
REMARK   48  A    between atoms: _131  and  _134
REMARK   49  A    between atoms: _134  and  _135
REMARK   50  A    between atoms: _141  and  _143
REMARK   51  A    between atoms: _154  and  _157
REMARK   52  A    between atoms: _157  and  _158
REMARK   53  A    between atoms: _166  and  _167
REMARK   54  A    between atoms: _175  and  _177
REMARK   55  A    between atoms: _177  and  _178
REMARK   56  A    between atoms: _177  and  _180
REMARK   57  A    between atoms: _180  and  _181
REMARK   58  A    between atoms: _181  and  _182
REMARK   59  A    between atoms: _185  and  _187
REMARK   60  A    between atoms: _187  and  _188
REMARK   61  A    between atoms: _187  and  _190
REMARK   62  A    between atoms: _190  and  _191
REMARK   63  A    between atoms: _196  and  _198
REMARK   64  A    between atoms: _198  and  _199
REMARK   65  A    between atoms: _198  and  _201
REMARK   66  A    between atoms: _201  and  _202
REMARK   67  A    between atoms: _202  and  _203
REMARK   68  A    between atoms: _206  and  _208
REMARK   69  A    between atoms: _208  and  _209
REMARK   70  A    between atoms: _208  and  _211
REMARK   71  A    between atoms: _211  and  _212
REMARK   72  A    between atoms: _215  and  _217
REMARK   73  A    between atoms: _217  and  _218
REMARK   74  A    between atoms: _217  and  _220
REMARK   75  A    between atoms: _220  and  _221
REMARK   76  A    between atoms: _222  and  ZN_453
REMARK   77  A    between atoms: _226  and  _228
REMARK   78  A    between atoms: _228  and  _229
REMARK   79  A    between atoms: _228  and  _231
REMARK   80  A    between atoms: _231  and  _232
REMARK   81  A    between atoms: _235  and  _237
REMARK   82  A    between atoms: _237  and  _238
REMARK   83  A    between atoms: _237  and  _240
REMARK   84  A    between atoms: _243  and  _245
REMARK   85  A    between atoms: _245  and  _246
REMARK   86  A    between atoms: _245  and  _248
REMARK   87  A    between atoms: _248  and  _249
REMARK   88  A    between atoms: _254  and  _256
REMARK   89  A    between atoms: _256  and  _257
REMARK   90  A    between atoms: _256  and  _259
REMARK   91  A    between atoms: _259  and  _260
REMARK   92  A    between atoms: _266  and  _268
REMARK   93  A    between atoms: _268  and  _269
REMARK   94  A    between atoms: _271  and  _273
REMARK   95  A    between atoms: _273  and  _274
REMARK   96  A    between atoms: _277  and  _279
REMARK   97  A    between atoms: _279  and  _280
REMARK   98  A    between atoms: _279  and  _282
REMARK   99  A    between atoms: _285  and  _287
REMARK  100  A    between atoms: _287  and  _288
REMARK  101  A    between atoms: _287  and  _290
REMARK  102  A    between atoms: _290  and  _291
REMARK  103  A    between atoms: _291  and  _292
REMARK  104  A    between atoms: _297  and  _299
REMARK  105  A    between atoms: _299  and  _300
REMARK  106  A    between atoms: _299  and  _302
REMARK  107  A    between atoms: _302  and  _303
REMARK  108  A    between atoms: _306  and  _308
REMARK  109  A    between atoms: _308  and  _309
REMARK  110  A    between atoms: _312  and  _314
REMARK  111  A    between atoms: _314  and  _315
REMARK  112  A    between atoms: _314  and  _317
REMARK  113  A    between atoms: _320  and  _322
REMARK  114  A    between atoms: _322  and  _323
REMARK  115  A    between atoms: _322  and  _325
REMARK  116  A    between atoms: _325  and  _326
REMARK  117  A    between atoms: _329  and  _331
REMARK  118  A    between atoms: _331  and  _332
REMARK  119  A    between atoms: _334  and  _336
REMARK  120  A    between atoms: _336  and  _337
REMARK  121  A    between atoms: _336  and  _339
REMARK  122  A    between atoms: _339  and  _340
REMARK  123  A    between atoms: _342  and  _344
REMARK  124  A    between atoms: _344  and  _345
REMARK  125  A    between atoms: _344  and  _347
REMARK  126  A    between atoms: _347  and  _348
REMARK  127  A    between atoms: _351  and  _353
REMARK  128  A    between atoms: _353  and  _354
REMARK  129  A    between atoms: _353  and  _356
REMARK  130  A    between atoms: _356  and  _357
REMARK  131  A    between atoms: _360  and  _362
REMARK  132  A    between atoms: _362  and  _363
REMARK  133  A    between atoms: _362  and  _365
REMARK  134  A    between atoms: _365  and  _366
REMARK  135  A    between atoms: _370  and  _371
REMARK  136  A    between atoms: _377  and  _378
REMARK  137  A    between atoms: _383  and  _385
REMARK  138  A    between atoms: _385  and  _386
REMARK  139  A    between atoms: _385  and  _388
REMARK  140  A    between atoms: _388  and  _389
REMARK  141  A    between atoms: _392  and  _394
REMARK  142  A    between atoms: _394  and  _395
REMARK  143  A    between atoms: _394  and  _397
REMARK  144  A    between atoms: _397  and  _398
REMARK  145  A    between atoms: _401  and  _403
REMARK  146  A    between atoms: _403  and  _404
REMARK  147  A    between atoms: _403  and  _406
REMARK  148  A    between atoms: _409  and  _411
REMARK  149  A    between atoms: _411  and  _412
REMARK  150  A    between atoms: _411  and  _414
REMARK  151  A    between atoms: _414  and  _415
REMARK  152  A    between atoms: _425  and  _427
REMARK  153  A    between atoms: _427  and  _428
REMARK  154  A    between atoms: _427  and  _430
REMARK  155  A    between atoms: _430  and  _431
REMARK  156  A    between atoms: _436  and  _438
REMARK  157  A    between atoms: _438  and  _439
REMARK  158  A    between atoms: _438  and  _441
REMARK  159  A    between atoms: _441  and  _442
REMARK  160  A    between atoms: _442  and  _443
REMARK  161  A    between atoms: _443  and  _444
REMARK                            x       y       z     vdW  Elec       q    Type
REMARK                         _______ _______ _______ _____ _____    ______ ____
ROOT
ATOM      1  CA  HIS A   1      -0.865  -2.768   7.735  0.00  0.00    +0.151 C 
ENDROOT
BRANCH   1   2
ATOM      2  C   HIS A   1      -2.247  -3.406   7.919  0.00  0.00    +0.239 C 
ATOM      3  O   HIS A   1      -2.392  -4.425   8.595  0.00  0.00    -0.274 OA
ATOM      4  N   ALA A   2      -3.245  -2.807   7.276  0.00  0.00    -0.298 N 
ATOM      5  H   ALA A   2      -3.024  -1.962   6.711  0.00  0.00    +0.150 HD
BRANCH   4   6
ATOM      6  CA  ALA A   2      -4.630  -3.261   7.314  0.00  0.00    +0.137 C 
ATOM      7  CB  ALA A   2      -5.232  -2.965   8.695  0.00  0.00    +0.030 C 
BRANCH   6   8
ATOM      8  C   ALA A   2      -5.352  -2.424   6.270  0.00  0.00    +0.227 C 
ATOM      9  O   ALA A   2      -4.701  -1.735   5.469  0.00  0.00    -0.286 OA
ENDBRANCH   6   8
ENDBRANCH   4   6
ENDBRANCH   1   2
BRANCH   1  10
ATOM     10  N   HIS A   1      -0.787  -2.127   6.402  0.00  0.00    -0.238 NA
ATOM     11  H   HIS A   1      -1.510  -1.425   6.144  0.00  0.00    +0.142 HD
ENDBRANCH   1  10
BRANCH   1  12
ATOM     12  CB  HIS A   1      -0.625  -1.731   8.831  0.00  0.00    +0.074 C 
BRANCH  12  13
ATOM     13  CG  HIS A   1       0.580  -0.883   8.585  0.00  0.00    +0.082 A 
ATOM     14  CD2 HIS A   1       1.889  -1.213   8.453  0.00  0.00    +0.115 A 
ATOM     15  NE2 HIS A   1       2.576  -0.054   8.192  0.00  0.00    -0.221 NA
ATOM     16  CE1 HIS A   1       1.722   0.954   8.167  0.00  0.00    +0.199 A 
ATOM     17  ND1 HIS A   1       0.509   0.482   8.403  0.00  0.00    -0.227 NA
ENDBRANCH  12  13
ENDBRANCH   1  12
TORSDOF 6
REMARK  Name = ../refined-set-2016/1g53/1g53_pocket.pdb
REMARK  161 active torsions:
REMARK  status: ('A' for Active; 'I' for Inactive)
REMARK    1  A    between atoms: _1  and  _3
REMARK    2  A    between atoms: _3  and  _4
REMARK    3  A    between atoms: _3  and  _6
REMARK    4  A    between atoms: _6  and  _7
REMARK    5  A    between atoms: _12  and  _14
REMARK    6  A    between atoms: _14  and  _15
REMARK    7  A    between atoms: _14  and  _17
REMARK    8  A    between atoms: _17  and  _18
REMARK    9  A    between atoms: _28  and  _30
REMARK   10  A    between atoms: _30  and  _31
REMARK   11  A    between atoms: _30  and  _33
REMARK   12  A    between atoms: _33  and  _34
REMARK   13  A    between atoms: _39  and  _40
REMARK   14  A    between atoms: _42  and  _44
REMARK   15  A    between atoms: _44  and  _45
REMARK   16  A    between atoms: _44  and  _47
REMARK   17  A    between atoms: _47  and  _48
REMARK   18  A    between atoms: _54  and  _56
REMARK   19  A    between atoms: _56  and  _57
REMARK   20  A    between atoms: _56  and  _59
REMARK   21  A    between atoms: _59  and  _60
REMARK   22  A    between atoms: _63  and  _64
REMARK   23  A    between atoms: _69  and  _71
REMARK   24  A    between atoms: _71  and  _72
REMARK   25  A    between atoms: _71  and  _74
REMARK   26  A    between atoms: _74  and  _75
REMARK   27  A    between atoms: _80  and  _82
REMARK   28  A    between atoms: _82  and  _83
REMARK   29  A    between atoms: _82  and  _85
REMARK   30  A    between atoms: _85  and  _86
REMARK   31  A    between atoms: _91  and  _93
REMARK   32  A    between atoms: _93  and  _94
REMARK   33  A    between atoms: _97  and  _99
REMARK   34  A    between atoms: _99  and  _100
REMARK   35  A    between atoms: _99  and  _102
REMARK   36  A    between atoms: _102  and  _103
REMARK   37  A    between atoms: _108  and  _110
REMARK   38  A    between atoms: _110  and  _111
REMARK   39  A    between atoms: _110  and  _113
REMARK   40  A    between atoms: _113  and  _114
REMARK   41  A    between atoms: _117  and  _119
REMARK   42  A    between atoms: _119  and  _120
REMARK   43  A    between atoms: _119  and  _122
REMARK   44  A    between atoms: _122  and  _123
REMARK   45  A    between atoms: _123  and  _124
REMARK   46  A    between atoms: _129  and  _131
REMARK   47  A    between atoms: _131  and  _132
REMARK   48  A    between atoms: _131  and  _134
REMARK   49  A    between atoms: _134  and  _135
REMARK   50  A    between atoms: _141  and  _143
REMARK   51  A    between atoms: _154  and  _157
REMARK   52  A    between atoms: _157  and  _158
REMARK   53  A    between atoms: _166  and  _167
REMARK   54  A    between atoms: _175  and  _177
REMARK   55  A    between atoms: _177  and  _178
REMARK   56  A    between atoms: _177  and  _180
REMARK   57  A    between atoms: _180  and  _181
REMARK   58  A    between atoms: _181  and  _182
REMARK   59  A    between atoms: _185  and  _187
REMARK   60  A    between atoms: _187  and  _188
REMARK   61  A    between atoms: _187  and  _190
REMARK   62  A    between atoms: _190  and  _191
REMARK   63  A    between atoms: _196  and  _198
REMARK   64  A    between atoms: _198  and  _199
REMARK   65  A    between atoms: _198  and  _201
REMARK   66  A    between atoms: _201  and  _202
REMARK   67  A    between atoms: _202  and  _203
REMARK   68  A    between atoms: _206  and  _208
REMARK   69  A    between atoms: _208  and  _209
REMARK   70  A    between atoms: _208  and  _211
REMARK   71  A    between atoms: _211  and  _212
REMARK   72  A    between atoms: _215  and  _217
REMARK   73  A    between atoms: _217  and  _218
REMARK   74  A    between atoms: _217  and  _220
REMARK   75  A    between atoms: _220  and  _221
REMARK   76  A    between atoms: _222  and  ZN_453
REMARK   77  A    between atoms: _226  and  _228
REMARK   78  A    between atoms: _228  and  _229
REMARK   79  A    between atoms: _228  and  _231
REMARK   80  A    between atoms: _231  and  _232
REMARK   81  A    between atoms: _235  and  _237
REMARK   82  A    between atoms: _237  and  _238
REMARK   83  A    between atoms: _237  and  _240
REMARK   84  A    between atoms: _243  and  _245
REMARK   85  A    between atoms: _245  and  _246
REMARK   86  A    between atoms: _245  and  _248
REMARK   87  A    between atoms: _248  and  _249
REMARK   88  A    between atoms: _254  and  _256
REMARK   89  A    between atoms: _256  and  _257
REMARK   90  A    between atoms: _256  and  _259
REMARK   91  A    between atoms: _259  and  _260
REMARK   92  A    between atoms: _266  and  _268
REMARK   93  A    between atoms: _268  and  _269
REMARK   94  A    between atoms: _271  and  _273
REMARK   95  A    between atoms: _273  and  _274
REMARK   96  A    between atoms: _277  and  _279
REMARK   97  A    between atoms: _279  and  _280
REMARK   98  A    between atoms: _279  and  _282
REMARK   99  A    between atoms: _285  and  _287
REMARK  100  A    between atoms: _287  and  _288
REMARK  101  A    between atoms: _287  and  _290
REMARK  102  A    between atoms: _290  and  _291
REMARK  103  A    between atoms: _291  and  _292
REMARK  104  A    between atoms: _297  and  _299
REMARK  105  A    between atoms: _299  and  _300
REMARK  106  A    between atoms: _299  and  _302
REMARK  107  A    between atoms: _302  and  _303
REMARK  108  A    between atoms: _306  and  _308
REMARK  109  A    between atoms: _308  and  _309
REMARK  110  A    between atoms: _312  and  _314
REMARK  111  A    between atoms: _314  and  _315
REMARK  112  A    between atoms: _314  and  _317
REMARK  113  A    between atoms: _320  and  _322
REMARK  114  A    between atoms: _322  and  _323
REMARK  115  A    between atoms: _322  and  _325
REMARK  116  A    between atoms: _325  and  _326
REMARK  117  A    between atoms: _329  and  _331
REMARK  118  A    between atoms: _331  and  _332
REMARK  119  A    between atoms: _334  and  _336
REMARK  120  A    between atoms: _336  and  _337
REMARK  121  A    between atoms: _336  and  _339
REMARK  122  A    between atoms: _339  and  _340
REMARK  123  A    between atoms: _342  and  _344
REMARK  124  A    between atoms: _344  and  _345
REMARK  125  A    between atoms: _344  and  _347
REMARK  126  A    between atoms: _347  and  _348
REMARK  127  A    between atoms: _351  and  _353
REMARK  128  A    between atoms: _353  and  _354
REMARK  129  A    between atoms: _353  and  _356
REMARK  130  A    between atoms: _356  and  _357
REMARK  131  A    between atoms: _360  and  _362
REMARK  132  A    between atoms: _362  and  _363
REMARK  133  A    between atoms: _362  and  _365
REMARK  134  A    between atoms: _365  and  _366
REMARK  135  A    between atoms: _370  and  _371
REMARK  136  A    between atoms: _377  and  _378
REMARK  137  A    between atoms: _383  and  _385
REMARK  138  A    between atoms: _385  and  _386
REMARK  139  A    between atoms: _385  and  _388
REMARK  140  A    between atoms: _388  and  _389
REMARK  141  A    between atoms: _392  and  _394
REMARK  142  A    between atoms: _394  and  _395
REMARK  143  A    between atoms: _394  and  _397
REMARK  144  A    between atoms: _397  and  _398
REMARK  145  A    between atoms: _401  and  _403
REMARK  146  A    between atoms: _403  and  _404
REMARK  147  A    between atoms: _403  and  _406
REMARK  148  A    between atoms: _409  and  _411
REMARK  149  A    between atoms: _411  and  _412
REMARK  150  A    between atoms: _411  and  _414
REMARK  151  A    between atoms: _414  and  _415
REMARK  152  A    between atoms: _425  and  _427
REMARK  153  A    between atoms: _427  and  _428
REMARK  154  A    between atoms: _427  and  _430
REMARK  155  A    between atoms: _430  and  _431
REMARK  156  A    between atoms: _436  and  _438
REMARK  157  A    between atoms: _438  and  _439
REMARK  158  A    between atoms: _438  and  _441
REMARK  159  A    between atoms: _441  and  _442
REMARK  160  A    between atoms: _442  and  _443
REMARK  161  A    between atoms: _443  and  _444
REMARK                            x       y       z     vdW  Elec       q    Type
REMARK                         _______ _______ _______ _____ _____    ______ ____
ROOT
ATOM      1  CB  ASN A   1      -8.658   2.551   7.115  0.00  0.00    +0.110 C 
ENDROOT
BRANCH   1   2
ATOM      2  CG  ASN A   1      -7.468   2.282   8.006  0.00  0.00    +0.221 C 
ATOM      3  OD1 ASN A   1      -6.765   3.218   8.377  0.00  0.00    -0.275 OA
ATOM      4  ND2 ASN A   1      -7.231   1.026   8.362  0.00  0.00    -0.329 N 
ATOM      5 HD21 ASN A   1      -6.424   0.804   8.979  0.00  0.00    +0.145 HD
ATOM      6 HD22 ASN A   1      -7.853   0.264   8.024  0.00  0.00    +0.145 HD
ENDBRANCH   1   2
BRANCH   1   7
ATOM      7  CA  ASN A   1      -9.404   1.289   6.689  0.00  0.00    +0.142 C 
BRANCH   7   8
ATOM      8  N   ASN A   1      -8.533   0.398   5.941  0.00  0.00    -0.239 NA
ATOM      9  H   ASN A   1      -7.960   0.784   5.163  0.00  0.00    +0.142 HD
ENDBRANCH   7   8
BRANCH   7  10
ATOM     10  C   ASN A   1     -10.557   1.764   5.820  0.00  0.00    +0.225 C 
ATOM     11  O   ASN A   1     -10.404   1.913   4.610  0.00  0.00    -0.287 OA
ENDBRANCH   7  10
ENDBRANCH   1   7
TORSDOF 4
REMARK  Name = ../refined-set-2016/1g53/1g53_pocket.pdb
REMARK  161 active torsions:
REMARK  status: ('A' for Active; 'I' for Inactive)
REMARK    1  A    between atoms: _1  and  _3
REMARK    2  A    between atoms: _3  and  _4
REMARK    3  A    between atoms: _3  and  _6
REMARK    4  A    between atoms: _6  and  _7
REMARK    5  A    between atoms: _12  and  _14
REMARK    6  A    between atoms: _14  and  _15
REMARK    7  A    between atoms: _14  and  _17
REMARK    8  A    between atoms: _17  and  _18
REMARK    9  A    between atoms: _28  and  _30
REMARK   10  A    between atoms: _30  and  _31
REMARK   11  A    between atoms: _30  and  _33
REMARK   12  A    between atoms: _33  and  _34
REMARK   13  A    between atoms: _39  and  _40
REMARK   14  A    between atoms: _42  and  _44
REMARK   15  A    between atoms: _44  and  _45
REMARK   16  A    between atoms: _44  and  _47
REMARK   17  A    between atoms: _47  and  _48
REMARK   18  A    between atoms: _54  and  _56
REMARK   19  A    between atoms: _56  and  _57
REMARK   20  A    between atoms: _56  and  _59
REMARK   21  A    between atoms: _59  and  _60
REMARK   22  A    between atoms: _63  and  _64
REMARK   23  A    between atoms: _69  and  _71
REMARK   24  A    between atoms: _71  and  _72
REMARK   25  A    between atoms: _71  and  _74
REMARK   26  A    between atoms: _74  and  _75
REMARK   27  A    between atoms: _80  and  _82
REMARK   28  A    between atoms: _82  and  _83
REMARK   29  A    between atoms: _82  and  _85
REMARK   30  A    between atoms: _85  and  _86
REMARK   31  A    between atoms: _91  and  _93
REMARK   32  A    between atoms: _93  and  _94
REMARK   33  A    between atoms: _97  and  _99
REMARK   34  A    between atoms: _99  and  _100
REMARK   35  A    between atoms: _99  and  _102
REMARK   36  A    between atoms: _102  and  _103
REMARK   37  A    between atoms: _108  and  _110
REMARK   38  A    between atoms: _110  and  _111
REMARK   39  A    between atoms: _110  and  _113
REMARK   40  A    between atoms: _113  and  _114
REMARK   41  A    between atoms: _117  and  _119
REMARK   42  A    between atoms: _119  and  _120
REMARK   43  A    between atoms: _119  and  _122
REMARK   44  A    between atoms: _122  and  _123
REMARK   45  A    between atoms: _123  and  _124
REMARK   46  A    between atoms: _129  and  _131
REMARK   47  A    between atoms: _131  and  _132
REMARK   48  A    between atoms: _131  and  _134
REMARK   49  A    between atoms: _134  and  _135
REMARK   50  A    between atoms: _141  and  _143
REMARK   51  A    between atoms: _154  and  _157
REMARK   52  A    between atoms: _157  and  _158
REMARK   53  A    between atoms: _166  and  _167
REMARK   54  A    between atoms: _175  and  _177
REMARK   55  A    between atoms: _177  and  _178
REMARK   56  A    between atoms: _177  and  _180
REMARK   57  A    between atoms: _180  and  _181
REMARK   58  A    between atoms: _181  and  _182
REMARK   59  A    between atoms: _185  and  _187
REMARK   60  A    between atoms: _187  and  _188
REMARK   61  A    between atoms: _187  and  _190
REMARK   62  A    between atoms: _190  and  _191
REMARK   63  A    between atoms: _196  and  _198
REMARK   64  A    between atoms: _198  and  _199
REMARK   65  A    between atoms: _198  and  _201
REMARK   66  A    between atoms: _201  and  _202
REMARK   67  A    between atoms: _202  and  _203
REMARK   68  A    between atoms: _206  and  _208
REMARK   69  A    between atoms: _208  and  _209
REMARK   70  A    between atoms: _208  and  _211
REMARK   71  A    between atoms: _211  and  _212
REMARK   72  A    between atoms: _215  and  _217
REMARK   73  A    between atoms: _217  and  _218
REMARK   74  A    between atoms: _217  and  _220
REMARK   75  A    between atoms: _220  and  _221
REMARK   76  A    between atoms: _222  and  ZN_453
REMARK   77  A    between atoms: _226  and  _228
REMARK   78  A    between atoms: _228  and  _229
REMARK   79  A    between atoms: _228  and  _231
REMARK   80  A    between atoms: _231  and  _232
REMARK   81  A    between atoms: _235  and  _237
REMARK   82  A    between atoms: _237  and  _238
REMARK   83  A    between atoms: _237  and  _240
REMARK   84  A    between atoms: _243  and  _245
REMARK   85  A    between atoms: _245  and  _246
REMARK   86  A    between atoms: _245  and  _248
REMARK   87  A    between atoms: _248  and  _249
REMARK   88  A    between atoms: _254  and  _256
REMARK   89  A    between atoms: _256  and  _257
REMARK   90  A    between atoms: _256  and  _259
REMARK   91  A    between atoms: _259  and  _260
REMARK   92  A    between atoms: _266  and  _268
REMARK   93  A    between atoms: _268  and  _269
REMARK   94  A    between atoms: _271  and  _273
REMARK   95  A    between atoms: _273  and  _274
REMARK   96  A    between atoms: _277  and  _279
REMARK   97  A    between atoms: _279  and  _280
REMARK   98  A    between atoms: _279  and  _282
REMARK   99  A    between atoms: _285  and  _287
REMARK  100  A    between atoms: _287  and  _288
REMARK  101  A    between atoms: _287  and  _290
REMARK  102  A    between atoms: _290  and  _291
REMARK  103  A    between atoms: _291  and  _292
REMARK  104  A    between atoms: _297  and  _299
REMARK  105  A    between atoms: _299  and  _300
REMARK  106  A    between atoms: _299  and  _302
REMARK  107  A    between atoms: _302  and  _303
REMARK  108  A    between atoms: _306  and  _308
REMARK  109  A    between atoms: _308  and  _309
REMARK  110  A    between atoms: _312  and  _314
REMARK  111  A    between atoms: _314  and  _315
REMARK  112  A    between atoms: _314  and  _317
REMARK  113  A    between atoms: _320  and  _322
REMARK  114  A    between atoms: _322  and  _323
REMARK  115  A    between atoms: _322  and  _325
REMARK  116  A    between atoms: _325  and  _326
REMARK  117  A    between atoms: _329  and  _331
REMARK  118  A    between atoms: _331  and  _332
REMARK  119  A    between atoms: _334  and  _336
REMARK  120  A    between atoms: _336  and  _337
REMARK  121  A    between atoms: _336  and  _339
REMARK  122  A    between atoms: _339  and  _340
REMARK  123  A    between atoms: _342  and  _344
REMARK  124  A    between atoms: _344  and  _345
REMARK  125  A    between atoms: _344  and  _347
REMARK  126  A    between atoms: _347  and  _348
REMARK  127  A    between atoms: _351  and  _353
REMARK  128  A    between atoms: _353  and  _354
REMARK  129  A    between atoms: _353  and  _356
REMARK  130  A    between atoms: _356  and  _357
REMARK  131  A    between atoms: _360  and  _362
REMARK  132  A    between atoms: _362  and  _363
REMARK  133  A    between atoms: _362  and  _365
REMARK  134  A    between atoms: _365  and  _366
REMARK  135  A    between atoms: _370  and  _371
REMARK  136  A    between atoms: _377  and  _378
REMARK  137  A    between atoms: _383  and  _385
REMARK  138  A    between atoms: _385  and  _386
REMARK  139  A    between atoms: _385  and  _388
REMARK  140  A    between atoms: _388  and  _389
REMARK  141  A    between atoms: _392  and  _394
REMARK  142  A    between atoms: _394  and  _395
REMARK  143  A    between atoms: _394  and  _397
REMARK  144  A    between atoms: _397  and  _398
REMARK  145  A    between atoms: _401  and  _403
REMARK  146  A    between atoms: _403  and  _404
REMARK  147  A    between atoms: _403  and  _406
REMARK  148  A    between atoms: _409  and  _411
REMARK  149  A    between atoms: _411  and  _412
REMARK  150  A    between atoms: _411  and  _414
REMARK  151  A    between atoms: _414  and  _415
REMARK  152  A    between atoms: _425  and  _427
REMARK  153  A    between atoms: _427  and  _428
REMARK  154  A    between atoms: _427  and  _430
REMARK  155  A    between atoms: _430  and  _431
REMARK  156  A    between atoms: _436  and  _438
REMARK  157  A    between atoms: _438  and  _439
REMARK  158  A    between atoms: _438  and  _441
REMARK  159  A    between atoms: _441  and  _442
REMARK  160  A    between atoms: _442  and  _443
REMARK  161  A    between atoms: _443  and  _444
REMARK                            x       y       z     vdW  Elec       q    Type
REMARK                         _______ _______ _______ _____ _____    ______ ____
ROOT
ATOM      1  C   UNK A   4     -10.322  -1.412  10.393  0.00  0.00    +0.000 C 
ATOM      2  C   UNK A   4     -10.397  -2.708  11.195  0.00  0.00    +0.000 C 
ATOM      3  O   UNK A   4     -11.028  -2.768  12.252  0.00  0.00    +0.000 OA
ATOM      4  N   VAL A   5      -9.705  -3.727  10.706  0.00  0.00    +0.000 N 
ATOM      5  CA  VAL A   5      -9.691  -5.029  11.344  0.00  0.00    +0.000 C 
ATOM      6  C   VAL A   5      -8.266  -5.506  11.558  0.00  0.00    +0.000 C 
ATOM      7  N   UNK A   6      -8.147  -6.517  12.403  0.00  0.00    +0.000 N 
ATOM      8  H   UNK A   6      -9.007  -6.848  12.885  0.00  0.00    +0.000 HD
ATOM      9  C   UNK A   6      -6.902  -7.196  12.705  0.00  0.00    +0.000 C 
ATOM     10  C   UNK A   6      -6.446  -6.882  14.131  0.00  0.00    +0.000 C 
ATOM     11  C   UNK A   6      -6.119  -5.434  14.354  0.00  0.00    +0.000 A 
ATOM     12  C   UNK A   6      -6.891  -4.424  14.824  0.00  0.00    +0.000 A 
ATOM     13  N   UNK A   6      -6.146  -3.216  14.888  0.00  0.00    +0.000 N 
ATOM     14 ZN   UNK A   6      -6.761  -1.488  15.274  0.00  0.00    +0.000 Zn
ATOM     15  N   UNK A   4      -7.608  -0.726  13.913  0.00  0.00    +0.000 N 
ATOM     16  C   UNK A   4      -7.990   0.510  13.658  0.00  0.00    +0.000 A 
ATOM     17  N   UNK A   4      -8.462   0.628  12.405  0.00  0.00    +0.000 NA
ATOM     18  C   UNK A   4      -8.388  -0.608  11.808  0.00  0.00    +0.000 A 
ATOM     19  C   UNK A   4      -7.856  -1.434  12.744  0.00  0.00    +0.000 A 
ATOM     20  C   UNK A   6      -4.949  -3.559  14.442  0.00  0.00    +0.000 A 
ATOM     21  N   UNK A   6      -4.887  -4.870  14.113  0.00  0.00    +0.000 NA
ATOM     22  O   VAL A   5      -7.317  -5.004  10.954  0.00  0.00    +0.000 OA
ATOM     23  H   VAL A   5      -9.153  -3.588   9.835  0.00  0.00    +0.000 HD
ATOM     24  C   UNK A   4      -8.882  -0.904  10.425  0.00  0.00    +0.000 C 
ENDROOT
BRANCH  14  25
ATOM     25  N   UNK A   6      -8.220  -2.305  16.419  0.00  0.00    +0.000 N 
ATOM     26  C   UNK A   6      -7.886  -3.195  17.336  0.00  0.00    +0.000 A 
ATOM     27  N   UNK A   6      -8.945  -3.617  18.037  0.00  0.00    +0.000 NA
ATOM     28  C   UNK A   6     -10.037  -2.961  17.545  0.00  0.00    +0.000 A 
ATOM     29  C   UNK A   6      -9.588  -2.149  16.556  0.00  0.00    +0.000 A 
BRANCH  29  30
ATOM     30  C   UNK A   6     -10.341  -1.108  15.788  0.00  0.00    +0.000 C 
BRANCH  30  31
ATOM     31  C   UNK A   6     -11.842  -1.389  15.668  0.00  0.00    +0.000 C 
BRANCH  31  32
ATOM     32  C   UNK A   6     -12.500  -0.191  15.013  0.00  0.00    +0.000 C 
ATOM     33  N   UNK A   4     -13.456   0.407  15.725  0.00  0.00    +0.000 N 
ATOM     34  H   UNK A   4     -13.716   0.002  16.647  0.00  0.00    +0.000 HD
ATOM     35  O   UNK A   6     -12.196   0.127  13.847  0.00  0.00    +0.000 OA
BRANCH  33  36
ATOM     36  C   UNK A   4     -14.160   1.614  15.265  0.00  0.00    +0.000 C 
BRANCH  36  37
ATOM     37  C   UNK A   4     -13.525   2.776  16.034  0.00  0.00    +0.000 C 
ATOM     38  O   UNK A   4     -13.716   2.921  17.247  0.00  0.00    +0.000 OA
ATOM     39  N   VAL A   5     -12.684   3.526  15.331  0.00  0.00    +0.000 N 
ATOM     40  H   VAL A   5     -12.567   3.313  14.320  0.00  0.00    +0.000 HD
BRANCH  39  41
ATOM     41  CA  VAL A   5     -11.918   4.626  15.891  0.00  0.00    +0.000 C 
BRANCH  41  42
ATOM     42  C   VAL A   5     -12.669   5.954  15.916  0.00  0.00    +0.000 C 
ATOM     43  N   UNK A   6     -12.754   6.548  17.106  0.00  0.00    +0.000 N 
ATOM     44  H   UNK A   6     -12.315   6.080  17.924  0.00  0.00    +0.000 HD
ATOM     45  O   VAL A   5     -13.147   6.429  14.874  0.00  0.00    +0.000 OA
BRANCH  43  46
ATOM     46  C   UNK A   6     -13.437   7.831  17.321  0.00  0.00    +0.000 C 
BRANCH  46  47
ATOM     47  C   UNK A   6     -12.501   8.799  18.039  0.00  0.00    +0.000 C 
ATOM     48  O   UNK A   6     -11.633   8.371  18.794  0.00  0.00    +0.000 OA
ENDBRANCH  46  47
BRANCH  46  49
ATOM     49  C   UNK A   6     -14.648   7.668  18.247  0.00  0.00    +0.000 C 
BRANCH  49  50
ATOM     50  C   UNK A   6     -15.634   6.631  17.812  0.00  0.00    +0.000 A 
ATOM     51  N   UNK A   6     -15.413   5.280  17.976  0.00  0.00    +0.000 NA
ATOM     52  C   UNK A   6     -16.464   4.613  17.529  0.00  0.00    +0.000 A 
ATOM     53  N   UNK A   6     -17.354   5.482  17.083  0.00  0.00    +0.000 NA
ATOM     54  C   UNK A   6     -16.862   6.751  17.250  0.00  0.00    +0.000 A 
ENDBRANCH  49  50
ENDBRANCH  46  49
ENDBRANCH  43  46
ENDBRANCH  41  42
BRANCH  41  55
ATOM     55  CB  VAL A   5     -10.572   4.783  15.100  0.00  0.00    +0.000 C 
ATOM     56  CG2 VAL A   5      -9.596   5.691  15.848  0.00  0.00    +0.000 C 
ATOM     57  CG1 VAL A   5      -9.957   3.425  14.864  0.00  0.00    +0.000 C 
ENDBRANCH  41  55
ENDBRANCH  39  41
ENDBRANCH  36  37
BRANCH  36  58
ATOM     58  C   UNK A   4     -15.671   1.500  15.518  0.00  0.00    +0.000 C 
BRANCH  58  59
ATOM     59  C   UNK A   4     -16.349   0.416  14.641  0.00  0.00    +0.000 C 
ATOM     60  C   UNK A   4     -17.123  -0.565  15.477  0.00  0.00    +0.000 C 
ATOM     61  C   UNK A   4     -17.269   1.055  13.621  0.00  0.00    +0.000 C 
ENDBRANCH  58  59
ENDBRANCH  36  58
ENDBRANCH  33  36
ENDBRANCH  31  32
BRANCH  31  62
ATOM     62  N   UNK A   6     -12.092  -2.580  14.864  0.00  0.00    +0.000 N 
ATOM     63  C   LEU A   2     -12.713  -3.643  15.361  0.00  0.00    +0.000 C 
ATOM     64  O   LEU A   2     -13.123  -3.693  16.512  0.00  0.00    +0.000 OA
ATOM     65  H   UNK A   6     -11.775  -2.597  13.874  0.00  0.00    +0.000 HD
BRANCH  63  66
ATOM     66  CA  LEU A   2     -12.947  -4.809  14.418  0.00  0.00    +0.000 C 
BRANCH  66  67
ATOM     67  N   LEU A   2     -12.587  -6.037  15.102  0.00  0.00    +0.000 N 
ATOM     68  H   LEU A   2     -13.272  -6.460  15.760  0.00  0.00    +0.000 HD
ATOM     69  C   GLU A   1     -11.423  -6.642  14.924  0.00  0.00    +0.000 C 
ATOM     70  O   GLU A   1     -10.585  -6.259  14.112  0.00  0.00    +0.000 OA
BRANCH  69  71
ATOM     71  CA  GLU A   1     -11.207  -7.904  15.740  0.00  0.00    +0.000 C 
BRANCH  71  72
ATOM     72  N   GLU A   1     -10.672  -8.922  14.859  0.00  0.00    +0.000 NA
ATOM     73  H   GLU A   1     -10.021  -8.647  14.096  0.00  0.00    +0.000 HD
ENDBRANCH  71  72
BRANCH  71  74
ATOM     74  CB  GLU A   1     -10.254  -7.651  16.909  0.00  0.00    +0.000 C 
BRANCH  74  75
ATOM     75  CG  GLU A   1     -10.828  -6.767  18.045  0.00  0.00    +0.000 C 
BRANCH  75  76
ATOM     76  CD  GLU A   1      -9.867  -6.640  19.216  0.00  0.00    +0.000 C 
ATOM     77  OE2 GLU A   1      -9.778  -5.534  19.780  0.00  0.00    +0.000 OA
ATOM     78  OE1 GLU A   1      -9.218  -7.653  19.577  0.00  0.00    +0.000 OA
ENDBRANCH  75  76
ENDBRANCH  74  75
ENDBRANCH  71  74
ENDBRANCH  69  71
ENDBRANCH  66  67
BRANCH  66  79
ATOM     79  CB  LEU A   2     -14.437  -4.862  14.059  0.00  0.00    +0.000 C 
BRANCH  79  80
ATOM     80  CG  LEU A   2     -15.170  -3.582  13.684  0.00  0.00    +0.000 C 
ATOM     81  CD2 LEU A   2     -16.593  -3.956  13.383  0.00  0.00    +0.000 C 
ATOM     82  CD1 LEU A   2     -14.540  -2.912  12.481  0.00  0.00    +0.000 C 
ENDBRANCH  79  80
ENDBRANCH  66  79
ENDBRANCH  63  66
ENDBRANCH  31  62
ENDBRANCH  30  31
ENDBRANCH  29  30
ENDBRANCH  14  25
BRANCH   1  84
ATOM     83  C   UNK A   3     -11.809   0.558  10.347  0.00  0.00    +0.000 C 
ATOM     84  N   UNK A   4     -11.224  -0.443  11.009  0.00  0.00    +0.000 N 
ATOM     85  H   UNK A   4     -11.423  -0.538  12.025  0.00  0.00    +0.000 HD
ATOM     86  O   UNK A   3     -11.596   0.812   9.146  0.00  0.00    +0.000 OA
BRANCH  83  87
ATOM     87  C   UNK A   3     -12.714   1.472  11.181  0.00  0.00    +0.000 C 
BRANCH  87  90
ATOM     88  C   LEU A   2     -12.546   3.878  11.306  0.00  0.00    +0.000 C 
ATOM     89  O   LEU A   2     -12.695   3.882  12.528  0.00  0.00    +0.000 OA
ATOM     90  N   UNK A   3     -12.676   2.784  10.560  0.00  0.00    +0.000 N 
ATOM     91  H   UNK A   3     -12.751   2.869   9.526  0.00  0.00    +0.000 HD
BRANCH  88  92
ATOM     92  CA  LEU A   2     -12.371   5.175  10.545  0.00  0.00    +0.000 C 
BRANCH  92  94
ATOM     93  C   GLU A   1     -12.847   7.529  10.791  0.00  0.00    +0.000 C 
ATOM     94  N   LEU A   2     -12.663   6.341  11.356  0.00  0.00    +0.000 N 
ATOM     95  H   LEU A   2     -12.729   6.246  12.390  0.00  0.00    +0.000 HD
ATOM     96  O   GLU A   1     -12.826   7.695   9.563  0.00  0.00    +0.000 OA
BRANCH  93  97
ATOM     97  CA  GLU A   1     -13.160   8.696  11.734  0.00  0.00    +0.000 C 
BRANCH  97  98
ATOM     98  CB  GLU A   1     -11.862   9.391  12.251  0.00  0.00    +0.000 C 
ATOM     99  CG2 GLU A   1     -11.042   8.458  13.124  0.00  0.00    +0.000 C 
BRANCH  98 100
ATOM    100  CG1 GLU A   1     -11.029   9.918  11.077  0.00  0.00    +0.000 C 
ATOM    101  CD1 GLU A   1      -9.849  10.757  11.520  0.00  0.00    +0.000 C 
ENDBRANCH  98 100
ENDBRANCH  97  98
BRANCH  97 102
ATOM    102  N   GLU A   1     -14.005   8.250  12.824  0.00  0.00    +0.000 NA
ATOM    103  H   GLU A   1     -13.641   7.566  13.518  0.00  0.00    +0.000 HD
ENDBRANCH  97 102
ENDBRANCH  93  97
ENDBRANCH  92  94
BRANCH  92 104
ATOM    104  CB  LEU A   2     -10.933   5.243  10.017  0.00  0.00    +0.000 C 
BRANCH 104 105
ATOM    105  CG  LEU A   2      -9.859   5.335  11.109  0.00  0.00    +0.000 C 
BRANCH 105 106
ATOM    106  CD  LEU A   2      -9.033   4.065  11.263  0.00  0.00    +0.000 C 
ATOM    107  NE2 LEU A   2      -7.726   4.226  11.398  0.00  0.00    +0.000 N 
ATOM    108 HE21 LEU A   2      -7.110   3.397  11.524  0.00  0.00    +0.000 HD
ATOM    109 HE22 LEU A   2      -7.315   5.181  11.378  0.00  0.00    +0.000 HD
ATOM    110  OE1 LEU A   2      -9.562   2.957  11.280  0.00  0.00    +0.000 OA
ENDBRANCH 105 106
ENDBRANCH 104 105
ENDBRANCH  92 104
ENDBRANCH  88  92
ENDBRANCH  87  90
BRANCH  87 111
ATOM    111  C   UNK A   3     -14.140   0.919  11.411  0.00  0.00    +0.000 C 
BRANCH 111 112
ATOM    112  C   UNK A   3     -14.836   0.422  10.181  0.00  0.00    +0.000 A 
ATOM    113  C   UNK A   3     -15.942   1.102   9.684  0.00  0.00    +0.000 A 
ATOM    114  C   UNK A   3     -16.656   0.604   8.601  0.00  0.00    +0.000 A 
ATOM    115  C   UNK A   3     -16.259  -0.587   7.998  0.00  0.00    +0.000 A 
ATOM    116  C   UNK A   3     -15.145  -1.277   8.482  0.00  0.00    +0.000 A 
ATOM    117  C   UNK A   3     -14.445  -0.772   9.566  0.00  0.00    +0.000 A 
ENDBRANCH 111 112
ENDBRANCH  87 111
ENDBRANCH  83  87
ENDBRANCH   1  84
BRANCH   9 118
ATOM    118  C   UNK A   6      -7.375  -8.644  12.579  0.00  0.00    +0.000 C 
ATOM    119  O   UNK A   6      -8.462  -8.991  13.077  0.00  0.00    +0.000 OA
ENDBRANCH   9 118
BRANCH   5 120
ATOM    120  CB  VAL A   5     -10.371  -6.078  10.438  0.00  0.00    +0.000 C 
BRANCH 120 121
ATOM    121  CG  VAL A   5     -11.819  -5.793  10.114  0.00  0.00    +0.000 A 
ATOM    122  CD2 VAL A   5     -12.833  -6.523  10.729  0.00  0.00    +0.000 A 
ATOM    123  CE2 VAL A   5     -14.172  -6.330  10.378  0.00  0.00    +0.000 A 
ATOM    124  CZ  VAL A   5     -14.509  -5.395   9.405  0.00  0.00    +0.000 A 
ATOM    125  CE1 VAL A   5     -13.512  -4.653   8.784  0.00  0.00    +0.000 A 
ATOM    126  CD1 VAL A   5     -12.164  -4.853   9.142  0.00  0.00    +0.000 A 
ENDBRANCH 120 121
ENDBRANCH   5 120
TORSDOF 42
REMARK  Name = ../refined-set-2016/1g53/1g53_pocket.pdb
REMARK  161 active torsions:
REMARK  status: ('A' for Active; 'I' for Inactive)
REMARK    1  A    between atoms: _1  and  _3
REMARK    2  A    between atoms: _3  and  _4
REMARK    3  A    between atoms: _3  and  _6
REMARK    4  A    between atoms: _6  and  _7
REMARK    5  A    between atoms: _12  and  _14
REMARK    6  A    between atoms: _14  and  _15
REMARK    7  A    between atoms: _14  and  _17
REMARK    8  A    between atoms: _17  and  _18
REMARK    9  A    between atoms: _28  and  _30
REMARK   10  A    between atoms: _30  and  _31
REMARK   11  A    between atoms: _30  and  _33
REMARK   12  A    between atoms: _33  and  _34
REMARK   13  A    between atoms: _39  and  _40
REMARK   14  A    between atoms: _42  and  _44
REMARK   15  A    between atoms: _44  and  _45
REMARK   16  A    between atoms: _44  and  _47
REMARK   17  A    between atoms: _47  and  _48
REMARK   18  A    between atoms: _54  and  _56
REMARK   19  A    between atoms: _56  and  _57
REMARK   20  A    between atoms: _56  and  _59
REMARK   21  A    between atoms: _59  and  _60
REMARK   22  A    between atoms: _63  and  _64
REMARK   23  A    between atoms: _69  and  _71
REMARK   24  A    between atoms: _71  and  _72
REMARK   25  A    between atoms: _71  and  _74
REMARK   26  A    between atoms: _74  and  _75
REMARK   27  A    between atoms: _80  and  _82
REMARK   28  A    between atoms: _82  and  _83
REMARK   29  A    between atoms: _82  and  _85
REMARK   30  A    between atoms: _85  and  _86
REMARK   31  A    between atoms: _91  and  _93
REMARK   32  A    between atoms: _93  and  _94
REMARK   33  A    between atoms: _97  and  _99
REMARK   34  A    between atoms: _99  and  _100
REMARK   35  A    between atoms: _99  and  _102
REMARK   36  A    between atoms: _102  and  _103
REMARK   37  A    between atoms: _108  and  _110
REMARK   38  A    between atoms: _110  and  _111
REMARK   39  A    between atoms: _110  and  _113
REMARK   40  A    between atoms: _113  and  _114
REMARK   41  A    between atoms: _117  and  _119
REMARK   42  A    between atoms: _119  and  _120
REMARK   43  A    between atoms: _119  and  _122
REMARK   44  A    between atoms: _122  and  _123
REMARK   45  A    between atoms: _123  and  _124
REMARK   46  A    between atoms: _129  and  _131
REMARK   47  A    between atoms: _131  and  _132
REMARK   48  A    between atoms: _131  and  _134
REMARK   49  A    between atoms: _134  and  _135
REMARK   50  A    between atoms: _141  and  _143
REMARK   51  A    between atoms: _154  and  _157
REMARK   52  A    between atoms: _157  and  _158
REMARK   53  A    between atoms: _166  and  _167
REMARK   54  A    between atoms: _175  and  _177
REMARK   55  A    between atoms: _177  and  _178
REMARK   56  A    between atoms: _177  and  _180
REMARK   57  A    between atoms: _180  and  _181
REMARK   58  A    between atoms: _181  and  _182
REMARK   59  A    between atoms: _185  and  _187
REMARK   60  A    between atoms: _187  and  _188
REMARK   61  A    between atoms: _187  and  _190
REMARK   62  A    between atoms: _190  and  _191
REMARK   63  A    between atoms: _196  and  _198
REMARK   64  A    between atoms: _198  and  _199
REMARK   65  A    between atoms: _198  and  _201
REMARK   66  A    between atoms: _201  and  _202
REMARK   67  A    between atoms: _202  and  _203
REMARK   68  A    between atoms: _206  and  _208
REMARK   69  A    between atoms: _208  and  _209
REMARK   70  A    between atoms: _208  and  _211
REMARK   71  A    between atoms: _211  and  _212
REMARK   72  A    between atoms: _215  and  _217
REMARK   73  A    between atoms: _217  and  _218
REMARK   74  A    between atoms: _217  and  _220
REMARK   75  A    between atoms: _220  and  _221
REMARK   76  A    between atoms: _222  and  ZN_453
REMARK   77  A    between atoms: _226  and  _228
REMARK   78  A    between atoms: _228  and  _229
REMARK   79  A    between atoms: _228  and  _231
REMARK   80  A    between atoms: _231  and  _232
REMARK   81  A    between atoms: _235  and  _237
REMARK   82  A    between atoms: _237  and  _238
REMARK   83  A    between atoms: _237  and  _240
REMARK   84  A    between atoms: _243  and  _245
REMARK   85  A    between atoms: _245  and  _246
REMARK   86  A    between atoms: _245  and  _248
REMARK   87  A    between atoms: _248  and  _249
REMARK   88  A    between atoms: _254  and  _256
REMARK   89  A    between atoms: _256  and  _257
REMARK   90  A    between atoms: _256  and  _259
REMARK   91  A    between atoms: _259  and  _260
REMARK   92  A    between atoms: _266  and  _268
REMARK   93  A    between atoms: _268  and  _269
REMARK   94  A    between atoms: _271  and  _273
REMARK   95  A    between atoms: _273  and  _274
REMARK   96  A    between atoms: _277  and  _279
REMARK   97  A    between atoms: _279  and  _280
REMARK   98  A    between atoms: _279  and  _282
REMARK   99  A    between atoms: _285  and  _287
REMARK  100  A    between atoms: _287  and  _288
REMARK  101  A    between atoms: _287  and  _290
REMARK  102  A    between atoms: _290  and  _291
REMARK  103  A    between atoms: _291  and  _292
REMARK  104  A    between atoms: _297  and  _299
REMARK  105  A    between atoms: _299  and  _300
REMARK  106  A    between atoms: _299  and  _302
REMARK  107  A    between atoms: _302  and  _303
REMARK  108  A    between atoms: _306  and  _308
REMARK  109  A    between atoms: _308  and  _309
REMARK  110  A    between atoms: _312  and  _314
REMARK  111  A    between atoms: _314  and  _315
REMARK  112  A    between atoms: _314  and  _317
REMARK  113  A    between atoms: _320  and  _322
REMARK  114  A    between atoms: _322  and  _323
REMARK  115  A    between atoms: _322  and  _325
REMARK  116  A    between atoms: _325  and  _326
REMARK  117  A    between atoms: _329  and  _331
REMARK  118  A    between atoms: _331  and  _332
REMARK  119  A    between atoms: _334  and  _336
REMARK  120  A    between atoms: _336  and  _337
REMARK  121  A    between atoms: _336  and  _339
REMARK  122  A    between atoms: _339  and  _340
REMARK  123  A    between atoms: _342  and  _344
REMARK  124  A    between atoms: _344  and  _345
REMARK  125  A    between atoms: _344  and  _347
REMARK  126  A    between atoms: _347  and  _348
REMARK  127  A    between atoms: _351  and  _353
REMARK  128  A    between atoms: _353  and  _354
REMARK  129  A    between atoms: _353  and  _356
REMARK  130  A    between atoms: _356  and  _357
REMARK  131  A    between atoms: _360  and  _362
REMARK  132  A    between atoms: _362  and  _363
REMARK  133  A    between atoms: _362  and  _365
REMARK  134  A    between atoms: _365  and  _366
REMARK  135  A    between atoms: _370  and  _371
REMARK  136  A    between atoms: _377  and  _378
REMARK  137  A    between atoms: _383  and  _385
REMARK  138  A    between atoms: _385  and  _386
REMARK  139  A    between atoms: _385  and  _388
REMARK  140  A    between atoms: _388  and  _389
REMARK  141  A    between atoms: _392  and  _394
REMARK  142  A    between atoms: _394  and  _395
REMARK  143  A    between atoms: _394  and  _397
REMARK  144  A    between atoms: _397  and  _398
REMARK  145  A    between atoms: _401  and  _403
REMARK  146  A    between atoms: _403  and  _404
REMARK  147  A    between atoms: _403  and  _406
REMARK  148  A    between atoms: _409  and  _411
REMARK  149  A    between atoms: _411  and  _412
REMARK  150  A    between atoms: _411  and  _414
REMARK  151  A    between atoms: _414  and  _415
REMARK  152  A    between atoms: _425  and  _427
REMARK  153  A    between atoms: _427  and  _428
REMARK  154  A    between atoms: _427  and  _430
REMARK  155  A    between atoms: _430  and  _431
REMARK  156  A    between atoms: _436  and  _438
REMARK  157  A    between atoms: _438  and  _439
REMARK  158  A    between atoms: _438  and  _441
REMARK  159  A    between atoms: _441  and  _442
REMARK  160  A    between atoms: _442  and  _443
REMARK  161  A    between atoms: _443  and  _444
REMARK                            x       y       z     vdW  Elec       q    Type
REMARK                         _______ _______ _______ _____ _____    ______ ____
ROOT
ATOM      1  C   GLU A   1      -6.006  -8.546  21.072  0.00  0.00    +0.238 C 
ATOM      2  O   GLU A   1      -5.172  -9.063  21.802  0.00  0.00    -0.274 OA
ATOM      3  N   HIS A   2      -7.207  -8.174  21.508  0.00  0.00    -0.298 N 
ATOM      4  H   HIS A   2      -7.863  -7.694  20.860  0.00  0.00    +0.150 HD
ENDROOT
BRANCH   1   5
ATOM      5  CA  GLU A   1      -5.718  -8.312  19.594  0.00  0.00    +0.145 C 
BRANCH   5   6
ATOM      6  N   GLU A   1      -6.780  -8.940  18.812  0.00  0.00    -0.238 NA
ATOM      7  H   GLU A   1      -7.635  -8.383  18.613  0.00  0.00    +0.142 HD
ENDBRANCH   5   6
BRANCH   5   8
ATOM      8  CB  GLU A   1      -5.639  -6.825  19.239  0.00  0.00    +0.038 C 
BRANCH   8   9
ATOM      9  CG  GLU A   1      -5.262  -6.639  17.771  0.00  0.00    +0.116 C 
BRANCH   9  10
ATOM     10  CD  GLU A   1      -4.551  -5.345  17.506  0.00  0.00    +0.365 C 
ATOM     11  OE2 GLU A   1      -5.170  -4.270  17.665  0.00  0.00    -0.246 OA
ATOM     12  OE1 GLU A   1      -3.363  -5.409  17.146  0.00  0.00    -0.246 OA
ENDBRANCH   9  10
ENDBRANCH   8   9
ENDBRANCH   5   8
ENDBRANCH   1   5
BRANCH   3  13
ATOM     13  CA  HIS A   2      -7.611  -8.431  22.878  0.00  0.00    +0.143 C 
BRANCH  13  14
ATOM     14  C   HIS A   2      -8.001  -9.898  22.886  0.00  0.00    +0.227 C 
ATOM     15  O   HIS A   2      -8.312 -10.470  21.835  0.00  0.00    -0.286 OA
ENDBRANCH  13  14
BRANCH  13  16
ATOM     16  CB  HIS A   2      -8.825  -7.591  23.279  0.00  0.00    +0.075 C 
BRANCH  16  17
ATOM     17  CG  HIS A   2      -8.520  -6.138  23.441  0.00  0.00    +0.082 A 
ATOM     18  CD2 HIS A   2      -8.077  -5.436  24.511  0.00  0.00    +0.115 A 
ATOM     19  NE2 HIS A   2      -7.884  -4.144  24.092  0.00  0.00    -0.221 NA
ATOM     20  CE1 HIS A   2      -8.198  -4.053  22.812  0.00  0.00    +0.199 A 
ATOM     21  ND1 HIS A   2      -8.592  -5.242  22.396  0.00  0.00    -0.227 NA
ENDBRANCH  16  17
ENDBRANCH  13  16
ENDBRANCH   3  13
TORSDOF 9
REMARK  Name = ../refined-set-2016/1g53/1g53_pocket.pdb
REMARK  161 active torsions:
REMARK  status: ('A' for Active; 'I' for Inactive)
REMARK    1  A    between atoms: _1  and  _3
REMARK    2  A    between atoms: _3  and  _4
REMARK    3  A    between atoms: _3  and  _6
REMARK    4  A    between atoms: _6  and  _7
REMARK    5  A    between atoms: _12  and  _14
REMARK    6  A    between atoms: _14  and  _15
REMARK    7  A    between atoms: _14  and  _17
REMARK    8  A    between atoms: _17  and  _18
REMARK    9  A    between atoms: _28  and  _30
REMARK   10  A    between atoms: _30  and  _31
REMARK   11  A    between atoms: _30  and  _33
REMARK   12  A    between atoms: _33  and  _34
REMARK   13  A    between atoms: _39  and  _40
REMARK   14  A    between atoms: _42  and  _44
REMARK   15  A    between atoms: _44  and  _45
REMARK   16  A    between atoms: _44  and  _47
REMARK   17  A    between atoms: _47  and  _48
REMARK   18  A    between atoms: _54  and  _56
REMARK   19  A    between atoms: _56  and  _57
REMARK   20  A    between atoms: _56  and  _59
REMARK   21  A    between atoms: _59  and  _60
REMARK   22  A    between atoms: _63  and  _64
REMARK   23  A    between atoms: _69  and  _71
REMARK   24  A    between atoms: _71  and  _72
REMARK   25  A    between atoms: _71  and  _74
REMARK   26  A    between atoms: _74  and  _75
REMARK   27  A    between atoms: _80  and  _82
REMARK   28  A    between atoms: _82  and  _83
REMARK   29  A    between atoms: _82  and  _85
REMARK   30  A    between atoms: _85  and  _86
REMARK   31  A    between atoms: _91  and  _93
REMARK   32  A    between atoms: _93  and  _94
REMARK   33  A    between atoms: _97  and  _99
REMARK   34  A    between atoms: _99  and  _100
REMARK   35  A    between atoms: _99  and  _102
REMARK   36  A    between atoms: _102  and  _103
REMARK   37  A    between atoms: _108  and  _110
REMARK   38  A    between atoms: _110  and  _111
REMARK   39  A    between atoms: _110  and  _113
REMARK   40  A    between atoms: _113  and  _114
REMARK   41  A    between atoms: _117  and  _119
REMARK   42  A    between atoms: _119  and  _120
REMARK   43  A    between atoms: _119  and  _122
REMARK   44  A    between atoms: _122  and  _123
REMARK   45  A    between atoms: _123  and  _124
REMARK   46  A    between atoms: _129  and  _131
REMARK   47  A    between atoms: _131  and  _132
REMARK   48  A    between atoms: _131  and  _134
REMARK   49  A    between atoms: _134  and  _135
REMARK   50  A    between atoms: _141  and  _143
REMARK   51  A    between atoms: _154  and  _157
REMARK   52  A    between atoms: _157  and  _158
REMARK   53  A    between atoms: _166  and  _167
REMARK   54  A    between atoms: _175  and  _177
REMARK   55  A    between atoms: _177  and  _178
REMARK   56  A    between atoms: _177  and  _180
REMARK   57  A    between atoms: _180  and  _181
REMARK   58  A    between atoms: _181  and  _182
REMARK   59  A    between atoms: _185  and  _187
REMARK   60  A    between atoms: _187  and  _188
REMARK   61  A    between atoms: _187  and  _190
REMARK   62  A    between atoms: _190  and  _191
REMARK   63  A    between atoms: _196  and  _198
REMARK   64  A    between atoms: _198  and  _199
REMARK   65  A    between atoms: _198  and  _201
REMARK   66  A    between atoms: _201  and  _202
REMARK   67  A    between atoms: _202  and  _203
REMARK   68  A    between atoms: _206  and  _208
REMARK   69  A    between atoms: _208  and  _209
REMARK   70  A    between atoms: _208  and  _211
REMARK   71  A    between atoms: _211  and  _212
REMARK   72  A    between atoms: _215  and  _217
REMARK   73  A    between atoms: _217  and  _218
REMARK   74  A    between atoms: _217  and  _220
REMARK   75  A    between atoms: _220  and  _221
REMARK   76  A    between atoms: _222  and  ZN_453
REMARK   77  A    between atoms: _226  and  _228
REMARK   78  A    between atoms: _228  and  _229
REMARK   79  A    between atoms: _228  and  _231
REMARK   80  A    between atoms: _231  and  _232
REMARK   81  A    between atoms: _235  and  _237
REMARK   82  A    between atoms: _237  and  _238
REMARK   83  A    between atoms: _237  and  _240
REMARK   84  A    between atoms: _243  and  _245
REMARK   85  A    between atoms: _245  and  _246
REMARK   86  A    between atoms: _245  and  _248
REMARK   87  A    between atoms: _248  and  _249
REMARK   88  A    between atoms: _254  and  _256
REMARK   89  A    between atoms: _256  and  _257
REMARK   90  A    between atoms: _256  and  _259
REMARK   91  A    between atoms: _259  and  _260
REMARK   92  A    between atoms: _266  and  _268
REMARK   93  A    between atoms: _268  and  _269
REMARK   94  A    between atoms: _271  and  _273
REMARK   95  A    between atoms: _273  and  _274
REMARK   96  A    between atoms: _277  and  _279
REMARK   97  A    between atoms: _279  and  _280
REMARK   98  A    between atoms: _279  and  _282
REMARK   99  A    between atoms: _285  and  _287
REMARK  100  A    between atoms: _287  and  _288
REMARK  101  A    between atoms: _287  and  _290
REMARK  102  A    between atoms: _290  and  _291
REMARK  103  A    between atoms: _291  and  _292
REMARK  104  A    between atoms: _297  and  _299
REMARK  105  A    between atoms: _299  and  _300
REMARK  106  A    between atoms: _299  and  _302
REMARK  107  A    between atoms: _302  and  _303
REMARK  108  A    between atoms: _306  and  _308
REMARK  109  A    between atoms: _308  and  _309
REMARK  110  A    between atoms: _312  and  _314
REMARK  111  A    between atoms: _314  and  _315
REMARK  112  A    between atoms: _314  and  _317
REMARK  113  A    between atoms: _320  and  _322
REMARK  114  A    between atoms: _322  and  _323
REMARK  115  A    between atoms: _322  and  _325
REMARK  116  A    between atoms: _325  and  _326
REMARK  117  A    between atoms: _329  and  _331
REMARK  118  A    between atoms: _331  and  _332
REMARK  119  A    between atoms: _334  and  _336
REMARK  120  A    between atoms: _336  and  _337
REMARK  121  A    between atoms: _336  and  _339
REMARK  122  A    between atoms: _339  and  _340
REMARK  123  A    between atoms: _342  and  _344
REMARK  124  A    between atoms: _344  and  _345
REMARK  125  A    between atoms: _344  and  _347
REMARK  126  A    between atoms: _347  and  _348
REMARK  127  A    between atoms: _351  and  _353
REMARK  128  A    between atoms: _353  and  _354
REMARK  129  A    between atoms: _353  and  _356
REMARK  130  A    between atoms: _356  and  _357
REMARK  131  A    between atoms: _360  and  _362
REMARK  132  A    between atoms: _362  and  _363
REMARK  133  A    between atoms: _362  and  _365
REMARK  134  A    between atoms: _365  and  _366
REMARK  135  A    between atoms: _370  and  _371
REMARK  136  A    between atoms: _377  and  _378
REMARK  137  A    between atoms: _383  and  _385
REMARK  138  A    between atoms: _385  and  _386
REMARK  139  A    between atoms: _385  and  _388
REMARK  140  A    between atoms: _388  and  _389
REMARK  141  A    between atoms: _392  and  _394
REMARK  142  A    between atoms: _394  and  _395
REMARK  143  A    between atoms: _394  and  _397
REMARK  144  A    between atoms: _397  and  _398
REMARK  145  A    between atoms: _401  and  _403
REMARK  146  A    between atoms: _403  and  _404
REMARK  147  A    between atoms: _403  and  _406
REMARK  148  A    between atoms: _409  and  _411
REMARK  149  A    between atoms: _411  and  _412
REMARK  150  A    between atoms: _411  and  _414
REMARK  151  A    between atoms: _414  and  _415
REMARK  152  A    between atoms: _425  and  _427
REMARK  153  A    between atoms: _427  and  _428
REMARK  154  A    between atoms: _427  and  _430
REMARK  155  A    between atoms: _430  and  _431
REMARK  156  A    between atoms: _436  and  _438
REMARK  157  A    between atoms: _438  and  _439
REMARK  158  A    between atoms: _438  and  _441
REMARK  159  A    between atoms: _441  and  _442
REMARK  160  A    between atoms: _442  and  _443
REMARK  161  A    between atoms: _443  and  _444
REMARK                            x       y       z     vdW  Elec       q    Type
REMARK                         _______ _______ _______ _____ _____    ______ ____
ROOT
ATOM      1  CA  PHE A   1      -7.819  14.112  15.225  0.00  0.00    +0.149 C 
ENDROOT
BRANCH   1   2
ATOM      2  C   PHE A   1      -6.381  14.249  15.694  0.00  0.00    +0.239 C 
ATOM      3  O   PHE A   1      -5.989  13.648  16.694  0.00  0.00    -0.274 OA
ATOM      4  N   GLY A   2      -5.610  15.067  14.986  0.00  0.00    -0.297 N 
ATOM      5  H   GLY A   2      -6.014  15.558  14.163  0.00  0.00    +0.150 HD
BRANCH   4   6
ATOM      6  CA  GLY A   2      -4.215  15.295  15.331  0.00  0.00    +0.163 C 
BRANCH   6   7
ATOM      7  C   GLY A   2      -4.031  15.874  16.727  0.00  0.00    +0.229 C 
ATOM      8  O   GLY A   2      -3.049  15.568  17.380  0.00  0.00    -0.286 OA
ENDBRANCH   6   7
ENDBRANCH   4   6
ENDBRANCH   1   2
BRANCH   1   9
ATOM      9  N   PHE A   1      -8.399  15.390  14.826  0.00  0.00    -0.238 NA
ATOM     10  H   PHE A   1      -8.723  15.503  13.844  0.00  0.00    +0.142 HD
ENDBRANCH   1   9
BRANCH   1  11
ATOM     11  CB  PHE A   1      -7.919  13.122  14.064  0.00  0.00    +0.053 C 
BRANCH  11  12
ATOM     12  CG  PHE A   1      -7.400  11.754  14.386  0.00  0.00    -0.020 A 
ATOM     13  CD2 PHE A   1      -8.231  10.800  14.937  0.00  0.00    -0.004 A 
ATOM     14  CE2 PHE A   1      -7.745   9.542  15.257  0.00  0.00    -0.000 A 
ATOM     15  CZ  PHE A   1      -6.421   9.235  15.026  0.00  0.00    -0.000 A 
ATOM     16  CE1 PHE A   1      -5.581  10.175  14.475  0.00  0.00    -0.000 A 
ATOM     17  CD1 PHE A   1      -6.072  11.428  14.156  0.00  0.00    -0.004 A 
ENDBRANCH  11  12
ENDBRANCH   1  11
TORSDOF 6
REMARK  Name = ../refined-set-2016/1g53/1g53_pocket.pdb
REMARK  161 active torsions:
REMARK  status: ('A' for Active; 'I' for Inactive)
REMARK    1  A    between atoms: _1  and  _3
REMARK    2  A    between atoms: _3  and  _4
REMARK    3  A    between atoms: _3  and  _6
REMARK    4  A    between atoms: _6  and  _7
REMARK    5  A    between atoms: _12  and  _14
REMARK    6  A    between atoms: _14  and  _15
REMARK    7  A    between atoms: _14  and  _17
REMARK    8  A    between atoms: _17  and  _18
REMARK    9  A    between atoms: _28  and  _30
REMARK   10  A    between atoms: _30  and  _31
REMARK   11  A    between atoms: _30  and  _33
REMARK   12  A    between atoms: _33  and  _34
REMARK   13  A    between atoms: _39  and  _40
REMARK   14  A    between atoms: _42  and  _44
REMARK   15  A    between atoms: _44  and  _45
REMARK   16  A    between atoms: _44  and  _47
REMARK   17  A    between atoms: _47  and  _48
REMARK   18  A    between atoms: _54  and  _56
REMARK   19  A    between atoms: _56  and  _57
REMARK   20  A    between atoms: _56  and  _59
REMARK   21  A    between atoms: _59  and  _60
REMARK   22  A    between atoms: _63  and  _64
REMARK   23  A    between atoms: _69  and  _71
REMARK   24  A    between atoms: _71  and  _72
REMARK   25  A    between atoms: _71  and  _74
REMARK   26  A    between atoms: _74  and  _75
REMARK   27  A    between atoms: _80  and  _82
REMARK   28  A    between atoms: _82  and  _83
REMARK   29  A    between atoms: _82  and  _85
REMARK   30  A    between atoms: _85  and  _86
REMARK   31  A    between atoms: _91  and  _93
REMARK   32  A    between atoms: _93  and  _94
REMARK   33  A    between atoms: _97  and  _99
REMARK   34  A    between atoms: _99  and  _100
REMARK   35  A    between atoms: _99  and  _102
REMARK   36  A    between atoms: _102  and  _103
REMARK   37  A    between atoms: _108  and  _110
REMARK   38  A    between atoms: _110  and  _111
REMARK   39  A    between atoms: _110  and  _113
REMARK   40  A    between atoms: _113  and  _114
REMARK   41  A    between atoms: _117  and  _119
REMARK   42  A    between atoms: _119  and  _120
REMARK   43  A    between atoms: _119  and  _122
REMARK   44  A    between atoms: _122  and  _123
REMARK   45  A    between atoms: _123  and  _124
REMARK   46  A    between atoms: _129  and  _131
REMARK   47  A    between atoms: _131  and  _132
REMARK   48  A    between atoms: _131  and  _134
REMARK   49  A    between atoms: _134  and  _135
REMARK   50  A    between atoms: _141  and  _143
REMARK   51  A    between atoms: _154  and  _157
REMARK   52  A    between atoms: _157  and  _158
REMARK   53  A    between atoms: _166  and  _167
REMARK   54  A    between atoms: _175  and  _177
REMARK   55  A    between atoms: _177  and  _178
REMARK   56  A    between atoms: _177  and  _180
REMARK   57  A    between atoms: _180  and  _181
REMARK   58  A    between atoms: _181  and  _182
REMARK   59  A    between atoms: _185  and  _187
REMARK   60  A    between atoms: _187  and  _188
REMARK   61  A    between atoms: _187  and  _190
REMARK   62  A    between atoms: _190  and  _191
REMARK   63  A    between atoms: _196  and  _198
REMARK   64  A    between atoms: _198  and  _199
REMARK   65  A    between atoms: _198  and  _201
REMARK   66  A    between atoms: _201  and  _202
REMARK   67  A    between atoms: _202  and  _203
REMARK   68  A    between atoms: _206  and  _208
REMARK   69  A    between atoms: _208  and  _209
REMARK   70  A    between atoms: _208  and  _211
REMARK   71  A    between atoms: _211  and  _212
REMARK   72  A    between atoms: _215  and  _217
REMARK   73  A    between atoms: _217  and  _218
REMARK   74  A    between atoms: _217  and  _220
REMARK   75  A    between atoms: _220  and  _221
REMARK   76  A    between atoms: _222  and  ZN_453
REMARK   77  A    between atoms: _226  and  _228
REMARK   78  A    between atoms: _228  and  _229
REMARK   79  A    between atoms: _228  and  _231
REMARK   80  A    between atoms: _231  and  _232
REMARK   81  A    between atoms: _235  and  _237
REMARK   82  A    between atoms: _237  and  _238
REMARK   83  A    between atoms: _237  and  _240
REMARK   84  A    between atoms: _243  and  _245
REMARK   85  A    between atoms: _245  and  _246
REMARK   86  A    between atoms: _245  and  _248
REMARK   87  A    between atoms: _248  and  _249
REMARK   88  A    between atoms: _254  and  _256
REMARK   89  A    between atoms: _256  and  _257
REMARK   90  A    between atoms: _256  and  _259
REMARK   91  A    between atoms: _259  and  _260
REMARK   92  A    between atoms: _266  and  _268
REMARK   93  A    between atoms: _268  and  _269
REMARK   94  A    between atoms: _271  and  _273
REMARK   95  A    between atoms: _273  and  _274
REMARK   96  A    between atoms: _277  and  _279
REMARK   97  A    between atoms: _279  and  _280
REMARK   98  A    between atoms: _279  and  _282
REMARK   99  A    between atoms: _285  and  _287
REMARK  100  A    between atoms: _287  and  _288
REMARK  101  A    between atoms: _287  and  _290
REMARK  102  A    between atoms: _290  and  _291
REMARK  103  A    between atoms: _291  and  _292
REMARK  104  A    between atoms: _297  and  _299
REMARK  105  A    between atoms: _299  and  _300
REMARK  106  A    between atoms: _299  and  _302
REMARK  107  A    between atoms: _302  and  _303
REMARK  108  A    between atoms: _306  and  _308
REMARK  109  A    between atoms: _308  and  _309
REMARK  110  A    between atoms: _312  and  _314
REMARK  111  A    between atoms: _314  and  _315
REMARK  112  A    between atoms: _314  and  _317
REMARK  113  A    between atoms: _320  and  _322
REMARK  114  A    between atoms: _322  and  _323
REMARK  115  A    between atoms: _322  and  _325
REMARK  116  A    between atoms: _325  and  _326
REMARK  117  A    between atoms: _329  and  _331
REMARK  118  A    between atoms: _331  and  _332
REMARK  119  A    between atoms: _334  and  _336
REMARK  120  A    between atoms: _336  and  _337
REMARK  121  A    between atoms: _336  and  _339
REMARK  122  A    between atoms: _339  and  _340
REMARK  123  A    between atoms: _342  and  _344
REMARK  124  A    between atoms: _344  and  _345
REMARK  125  A    between atoms: _344  and  _347
REMARK  126  A    between atoms: _347  and  _348
REMARK  127  A    between atoms: _351  and  _353
REMARK  128  A    between atoms: _353  and  _354
REMARK  129  A    between atoms: _353  and  _356
REMARK  130  A    between atoms: _356  and  _357
REMARK  131  A    between atoms: _360  and  _362
REMARK  132  A    between atoms: _362  and  _363
REMARK  133  A    between atoms: _362  and  _365
REMARK  134  A    between atoms: _365  and  _366
REMARK  135  A    between atoms: _370  and  _371
REMARK  136  A    between atoms: _377  and  _378
REMARK  137  A    between atoms: _383  and  _385
REMARK  138  A    between atoms: _385  and  _386
REMARK  139  A    between atoms: _385  and  _388
REMARK  140  A    between atoms: _388  and  _389
REMARK  141  A    between atoms: _392  and  _394
REMARK  142  A    between atoms: _394  and  _395
REMARK  143  A    between atoms: _394  and  _397
REMARK  144  A    between atoms: _397  and  _398
REMARK  145  A    between atoms: _401  and  _403
REMARK  146  A    between atoms: _403  and  _404
REMARK  147  A    between atoms: _403  and  _406
REMARK  148  A    between atoms: _409  and  _411
REMARK  149  A    between atoms: _411  and  _412
REMARK  150  A    between atoms: _411  and  _414
REMARK  151  A    between atoms: _414  and  _415
REMARK  152  A    between atoms: _425  and  _427
REMARK  153  A    between atoms: _427  and  _428
REMARK  154  A    between atoms: _427  and  _430
REMARK  155  A    between atoms: _430  and  _431
REMARK  156  A    between atoms: _436  and  _438
REMARK  157  A    between atoms: _438  and  _439
REMARK  158  A    between atoms: _438  and  _441
REMARK  159  A    between atoms: _441  and  _442
REMARK  160  A    between atoms: _442  and  _443
REMARK  161  A    between atoms: _443  and  _444
REMARK                            x       y       z     vdW  Elec       q    Type
REMARK                         _______ _______ _______ _____ _____    ______ ____
ROOT
ATOM      1  C   VAL A   2      -2.719  12.665  20.733  0.00  0.00    +0.241 C 
ATOM      2  N   GLN A   3      -2.886  13.850  21.301  0.00  0.00    -0.298 N 
ATOM      3  H   GLN A   3      -3.752  14.395  21.115  0.00  0.00    +0.150 HD
ATOM      4  O   VAL A   2      -1.678  12.012  20.879  0.00  0.00    -0.273 OA
ENDROOT
BRANCH   1   5
ATOM      5  CA  VAL A   2      -3.862  12.137  19.861  0.00  0.00    +0.148 C 
BRANCH   5   8
ATOM      6  C   ALA A   1      -5.830  13.434  20.444  0.00  0.00    +0.238 C 
ATOM      7  O   ALA A   1      -5.848  12.958  21.580  0.00  0.00    -0.274 OA
ATOM      8  N   VAL A   2      -4.900  13.111  19.547  0.00  0.00    -0.297 N 
ATOM      9  H   VAL A   2      -4.915  13.560  18.609  0.00  0.00    +0.150 HD
BRANCH   6  10
ATOM     10  CA  ALA A   1      -6.880  14.457  20.030  0.00  0.00    +0.145 C 
ATOM     11  CB  ALA A   1      -8.052  13.763  19.311  0.00  0.00    +0.028 C 
BRANCH  10  12
ATOM     12  N   ALA A   1      -6.336  15.523  19.198  0.00  0.00    -0.238 NA
ATOM     13  H   ALA A   1      -6.808  15.731  18.295  0.00  0.00    +0.142 HD
ENDBRANCH  10  12
ENDBRANCH   6  10
ENDBRANCH   5   8
BRANCH   5  14
ATOM     14  CB  VAL A   2      -3.305  11.442  18.596  0.00  0.00    +0.027 C 
ATOM     15  CG2 VAL A   2      -4.432  10.742  17.862  0.00  0.00    +0.002 C 
ATOM     16  CG1 VAL A   2      -2.586  12.446  17.682  0.00  0.00    +0.002 C 
ENDBRANCH   5  14
ENDBRANCH   1   5
BRANCH   2  17
ATOM     17  CA  GLN A   3      -1.858  14.398  22.190  0.00  0.00    +0.137 C 
BRANCH  17  18
ATOM     18  C   GLN A   3      -2.502  14.523  23.585  0.00  0.00    +0.227 C 
ATOM     19  O   GLN A   3      -2.024  15.252  24.440  0.00  0.00    -0.286 OA
ENDBRANCH  17  18
BRANCH  17  20
ATOM     20  CB  GLN A   3      -1.367  15.769  21.666  0.00  0.00    +0.037 C 
BRANCH  20  21
ATOM     21  CG  GLN A   3      -0.639  15.705  20.319  0.00  0.00    +0.087 C 
BRANCH  21  22
ATOM     22  CD  GLN A   3      -0.213  17.070  19.777  0.00  0.00    +0.219 C 
ATOM     23  OE1 GLN A   3      -0.264  18.088  20.469  0.00  0.00    -0.275 OA
ATOM     24  NE2 GLN A   3       0.227  17.085  18.527  0.00  0.00    -0.329 N 
ATOM     25 HE21 GLN A   3       0.544  17.978  18.098  0.00  0.00    +0.145 HD
ATOM     26 HE22 GLN A   3       0.255  16.204  17.975  0.00  0.00    +0.145 HD
ENDBRANCH  21  22
ENDBRANCH  20  21
ENDBRANCH  17  20
ENDBRANCH   2  17
TORSDOF 10
REMARK  Name = ../refined-set-2016/1g53/1g53_pocket.pdb
REMARK  161 active torsions:
REMARK  status: ('A' for Active; 'I' for Inactive)
REMARK    1  A    between atoms: _1  and  _3
REMARK    2  A    between atoms: _3  and  _4
REMARK    3  A    between atoms: _3  and  _6
REMARK    4  A    between atoms: _6  and  _7
REMARK    5  A    between atoms: _12  and  _14
REMARK    6  A    between atoms: _14  and  _15
REMARK    7  A    between atoms: _14  and  _17
REMARK    8  A    between atoms: _17  and  _18
REMARK    9  A    between atoms: _28  and  _30
REMARK   10  A    between atoms: _30  and  _31
REMARK   11  A    between atoms: _30  and  _33
REMARK   12  A    between atoms: _33  and  _34
REMARK   13  A    between atoms: _39  and  _40
REMARK   14  A    between atoms: _42  and  _44
REMARK   15  A    between atoms: _44  and  _45
REMARK   16  A    between atoms: _44  and  _47
REMARK   17  A    between atoms: _47  and  _48
REMARK   18  A    between atoms: _54  and  _56
REMARK   19  A    between atoms: _56  and  _57
REMARK   20  A    between atoms: _56  and  _59
REMARK   21  A    between atoms: _59  and  _60
REMARK   22  A    between atoms: _63  and  _64
REMARK   23  A    between atoms: _69  and  _71
REMARK   24  A    between atoms: _71  and  _72
REMARK   25  A    between atoms: _71  and  _74
REMARK   26  A    between atoms: _74  and  _75
REMARK   27  A    between atoms: _80  and  _82
REMARK   28  A    between atoms: _82  and  _83
REMARK   29  A    between atoms: _82  and  _85
REMARK   30  A    between atoms: _85  and  _86
REMARK   31  A    between atoms: _91  and  _93
REMARK   32  A    between atoms: _93  and  _94
REMARK   33  A    between atoms: _97  and  _99
REMARK   34  A    between atoms: _99  and  _100
REMARK   35  A    between atoms: _99  and  _102
REMARK   36  A    between atoms: _102  and  _103
REMARK   37  A    between atoms: _108  and  _110
REMARK   38  A    between atoms: _110  and  _111
REMARK   39  A    between atoms: _110  and  _113
REMARK   40  A    between atoms: _113  and  _114
REMARK   41  A    between atoms: _117  and  _119
REMARK   42  A    between atoms: _119  and  _120
REMARK   43  A    between atoms: _119  and  _122
REMARK   44  A    between atoms: _122  and  _123
REMARK   45  A    between atoms: _123  and  _124
REMARK   46  A    between atoms: _129  and  _131
REMARK   47  A    between atoms: _131  and  _132
REMARK   48  A    between atoms: _131  and  _134
REMARK   49  A    between atoms: _134  and  _135
REMARK   50  A    between atoms: _141  and  _143
REMARK   51  A    between atoms: _154  and  _157
REMARK   52  A    between atoms: _157  and  _158
REMARK   53  A    between atoms: _166  and  _167
REMARK   54  A    between atoms: _175  and  _177
REMARK   55  A    between atoms: _177  and  _178
REMARK   56  A    between atoms: _177  and  _180
REMARK   57  A    between atoms: _180  and  _181
REMARK   58  A    between atoms: _181  and  _182
REMARK   59  A    between atoms: _185  and  _187
REMARK   60  A    between atoms: _187  and  _188
REMARK   61  A    between atoms: _187  and  _190
REMARK   62  A    between atoms: _190  and  _191
REMARK   63  A    between atoms: _196  and  _198
REMARK   64  A    between atoms: _198  and  _199
REMARK   65  A    between atoms: _198  and  _201
REMARK   66  A    between atoms: _201  and  _202
REMARK   67  A    between atoms: _202  and  _203
REMARK   68  A    between atoms: _206  and  _208
REMARK   69  A    between atoms: _208  and  _209
REMARK   70  A    between atoms: _208  and  _211
REMARK   71  A    between atoms: _211  and  _212
REMARK   72  A    between atoms: _215  and  _217
REMARK   73  A    between atoms: _217  and  _218
REMARK   74  A    between atoms: _217  and  _220
REMARK   75  A    between atoms: _220  and  _221
REMARK   76  A    between atoms: _222  and  ZN_453
REMARK   77  A    between atoms: _226  and  _228
REMARK   78  A    between atoms: _228  and  _229
REMARK   79  A    between atoms: _228  and  _231
REMARK   80  A    between atoms: _231  and  _232
REMARK   81  A    between atoms: _235  and  _237
REMARK   82  A    between atoms: _237  and  _238
REMARK   83  A    between atoms: _237  and  _240
REMARK   84  A    between atoms: _243  and  _245
REMARK   85  A    between atoms: _245  and  _246
REMARK   86  A    between atoms: _245  and  _248
REMARK   87  A    between atoms: _248  and  _249
REMARK   88  A    between atoms: _254  and  _256
REMARK   89  A    between atoms: _256  and  _257
REMARK   90  A    between atoms: _256  and  _259
REMARK   91  A    between atoms: _259  and  _260
REMARK   92  A    between atoms: _266  and  _268
REMARK   93  A    between atoms: _268  and  _269
REMARK   94  A    between atoms: _271  and  _273
REMARK   95  A    between atoms: _273  and  _274
REMARK   96  A    between atoms: _277  and  _279
REMARK   97  A    between atoms: _279  and  _280
REMARK   98  A    between atoms: _279  and  _282
REMARK   99  A    between atoms: _285  and  _287
REMARK  100  A    between atoms: _287  and  _288
REMARK  101  A    between atoms: _287  and  _290
REMARK  102  A    between atoms: _290  and  _291
REMARK  103  A    between atoms: _291  and  _292
REMARK  104  A    between atoms: _297  and  _299
REMARK  105  A    between atoms: _299  and  _300
REMARK  106  A    between atoms: _299  and  _302
REMARK  107  A    between atoms: _302  and  _303
REMARK  108  A    between atoms: _306  and  _308
REMARK  109  A    between atoms: _308  and  _309
REMARK  110  A    between atoms: _312  and  _314
REMARK  111  A    between atoms: _314  and  _315
REMARK  112  A    between atoms: _314  and  _317
REMARK  113  A    between atoms: _320  and  _322
REMARK  114  A    between atoms: _322  and  _323
REMARK  115  A    between atoms: _322  and  _325
REMARK  116  A    between atoms: _325  and  _326
REMARK  117  A    between atoms: _329  and  _331
REMARK  118  A    between atoms: _331  and  _332
REMARK  119  A    between atoms: _334  and  _336
REMARK  120  A    between atoms: _336  and  _337
REMARK  121  A    between atoms: _336  and  _339
REMARK  122  A    between atoms: _339  and  _340
REMARK  123  A    between atoms: _342  and  _344
REMARK  124  A    between atoms: _344  and  _345
REMARK  125  A    between atoms: _344  and  _347
REMARK  126  A    between atoms: _347  and  _348
REMARK  127  A    between atoms: _351  and  _353
REMARK  128  A    between atoms: _353  and  _354
REMARK  129  A    between atoms: _353  and  _356
REMARK  130  A    between atoms: _356  and  _357
REMARK  131  A    between atoms: _360  and  _362
REMARK  132  A    between atoms: _362  and  _363
REMARK  133  A    between atoms: _362  and  _365
REMARK  134  A    between atoms: _365  and  _366
REMARK  135  A    between atoms: _370  and  _371
REMARK  136  A    between atoms: _377  and  _378
REMARK  137  A    between atoms: _383  and  _385
REMARK  138  A    between atoms: _385  and  _386
REMARK  139  A    between atoms: _385  and  _388
REMARK  140  A    between atoms: _388  and  _389
REMARK  141  A    between atoms: _392  and  _394
REMARK  142  A    between atoms: _394  and  _395
REMARK  143  A    between atoms: _394  and  _397
REMARK  144  A    between atoms: _397  and  _398
REMARK  145  A    between atoms: _401  and  _403
REMARK  146  A    between atoms: _403  and  _404
REMARK  147  A    between atoms: _403  and  _406
REMARK  148  A    between atoms: _409  and  _411
REMARK  149  A    between atoms: _411  and  _412
REMARK  150  A    between atoms: _411  and  _414
REMARK  151  A    between atoms: _414  and  _415
REMARK  152  A    between atoms: _425  and  _427
REMARK  153  A    between atoms: _427  and  _428
REMARK  154  A    between atoms: _427  and  _430
REMARK  155  A    between atoms: _430  and  _431
REMARK  156  A    between atoms: _436  and  _438
REMARK  157  A    between atoms: _438  and  _439
REMARK  158  A    between atoms: _438  and  _441
REMARK  159  A    between atoms: _441  and  _442
REMARK  160  A    between atoms: _442  and  _443
REMARK  161  A    between atoms: _443  and  _444
REMARK                            x       y       z     vdW  Elec       q    Type
REMARK                         _______ _______ _______ _____ _____    ______ ____
ROOT
ATOM      1  CA  VAL A   3     -12.086   2.763  20.066  0.00  0.00    +0.149 C 
ENDROOT
BRANCH   1   3
ATOM      2  C   ALA A   2     -12.442   5.036  20.854  0.00  0.00    +0.241 C 
ATOM      3  N   VAL A   3     -12.011   3.804  21.090  0.00  0.00    -0.297 N 
ATOM      4  H   VAL A   3     -11.612   3.574  22.022  0.00  0.00    +0.150 HD
ATOM      5  O   ALA A   2     -12.811   5.410  19.740  0.00  0.00    -0.273 OA
BRANCH   2   6
ATOM      6  CA  ALA A   2     -12.338   6.025  22.005  0.00  0.00    +0.149 C 
ATOM      7  CB  ALA A   2     -13.706   6.564  22.345  0.00  0.00    +0.031 C 
BRANCH   6  10
ATOM      8  C   LEU A   1     -10.478   7.608  22.211  0.00  0.00    +0.238 C 
ATOM      9  O   LEU A   1     -10.244   7.300  23.370  0.00  0.00    -0.274 OA
ATOM     10  N   ALA A   2     -11.463   7.079  21.499  0.00  0.00    -0.297 N 
ATOM     11  H   ALA A   2     -11.620   7.432  20.533  0.00  0.00    +0.150 HD
BRANCH   8  12
ATOM     12  CA  LEU A   1      -9.627   8.617  21.483  0.00  0.00    +0.145 C 
BRANCH  12  13
ATOM     13  N   LEU A   1      -8.972   9.619  22.310  0.00  0.00    -0.238 NA
ATOM     14  H   LEU A   1      -8.353   9.313  23.087  0.00  0.00    +0.142 HD
ENDBRANCH  12  13
BRANCH  12  15
ATOM     15  CB  LEU A   1      -8.585   7.820  20.724  0.00  0.00    +0.026 C 
BRANCH  15  16
ATOM     16  CG  LEU A   1      -7.691   8.510  19.704  0.00  0.00    +0.002 C 
ATOM     17  CD2 LEU A   1      -6.927   7.421  18.980  0.00  0.00    +0.000 C 
ATOM     18  CD1 LEU A   1      -8.517   9.337  18.707  0.00  0.00    +0.000 C 
ENDBRANCH  15  16
ENDBRANCH  12  15
ENDBRANCH   8  12
ENDBRANCH   6  10
ENDBRANCH   2   6
ENDBRANCH   1   3
BRANCH   1  19
ATOM     19  C   VAL A   3     -13.044   1.687  20.553  0.00  0.00    +0.241 C 
ATOM     20  O   VAL A   3     -12.935   1.206  21.682  0.00  0.00    -0.273 OA
ATOM     21  N   LEU A   4     -14.019   1.374  19.713  0.00  0.00    -0.297 N 
ATOM     22  H   LEU A   4     -14.082   1.880  18.807  0.00  0.00    +0.150 HD
BRANCH  21  23
ATOM     23  CA  LEU A   4     -15.003   0.349  20.012  0.00  0.00    +0.149 C 
BRANCH  23  24
ATOM     24  C   LEU A   4     -14.413  -0.922  19.417  0.00  0.00    +0.241 C 
ATOM     25  N   GLY A   5     -14.147  -1.913  20.256  0.00  0.00    -0.296 N 
ATOM     26  H   GLY A   5     -14.347  -1.789  21.269  0.00  0.00    +0.150 HD
ATOM     27  O   LEU A   4     -14.129  -0.964  18.231  0.00  0.00    -0.273 OA
BRANCH  25  28
ATOM     28  CA  GLY A   5     -13.583  -3.165  19.793  0.00  0.00    +0.163 C 
BRANCH  28  29
ATOM     29  C   GLY A   5     -14.644  -4.251  19.736  0.00  0.00    +0.229 C 
ATOM     30  O   GLY A   5     -15.359  -4.480  20.719  0.00  0.00    -0.286 OA
ENDBRANCH  28  29
ENDBRANCH  25  28
ENDBRANCH  23  24
BRANCH  23  31
ATOM     31  CB  LEU A   4     -16.326   0.697  19.324  0.00  0.00    +0.029 C 
BRANCH  31  32
ATOM     32  CG  LEU A   4     -17.618   0.029  19.777  0.00  0.00    +0.002 C 
ATOM     33  CD2 LEU A   4     -17.923   0.426  21.209  0.00  0.00    +0.000 C 
ATOM     34  CD1 LEU A   4     -18.746   0.480  18.860  0.00  0.00    +0.000 C 
ENDBRANCH  31  32
ENDBRANCH  23  31
ENDBRANCH  21  23
ENDBRANCH   1  19
BRANCH   1  35
ATOM     35  CB  VAL A   3     -10.698   2.107  19.766  0.00  0.00    +0.027 C 
ATOM     36  CG2 VAL A   3      -9.697   3.164  19.370  0.00  0.00    +0.002 C 
ATOM     37  CG1 VAL A   3     -10.826   1.085  18.640  0.00  0.00    +0.002 C 
ENDBRANCH   1  35
TORSDOF 15
REMARK  Name = ../refined-set-2016/1g53/1g53_pocket.pdb
REMARK  161 active torsions:
REMARK  status: ('A' for Active; 'I' for Inactive)
REMARK    1  A    between atoms: _1  and  _3
REMARK    2  A    between atoms: _3  and  _4
REMARK    3  A    between atoms: _3  and  _6
REMARK    4  A    between atoms: _6  and  _7
REMARK    5  A    between atoms: _12  and  _14
REMARK    6  A    between atoms: _14  and  _15
REMARK    7  A    between atoms: _14  and  _17
REMARK    8  A    between atoms: _17  and  _18
REMARK    9  A    between atoms: _28  and  _30
REMARK   10  A    between atoms: _30  and  _31
REMARK   11  A    between atoms: _30  and  _33
REMARK   12  A    between atoms: _33  and  _34
REMARK   13  A    between atoms: _39  and  _40
REMARK   14  A    between atoms: _42  and  _44
REMARK   15  A    between atoms: _44  and  _45
REMARK   16  A    between atoms: _44  and  _47
REMARK   17  A    between atoms: _47  and  _48
REMARK   18  A    between atoms: _54  and  _56
REMARK   19  A    between atoms: _56  and  _57
REMARK   20  A    between atoms: _56  and  _59
REMARK   21  A    between atoms: _59  and  _60
REMARK   22  A    between atoms: _63  and  _64
REMARK   23  A    between atoms: _69  and  _71
REMARK   24  A    between atoms: _71  and  _72
REMARK   25  A    between atoms: _71  and  _74
REMARK   26  A    between atoms: _74  and  _75
REMARK   27  A    between atoms: _80  and  _82
REMARK   28  A    between atoms: _82  and  _83
REMARK   29  A    between atoms: _82  and  _85
REMARK   30  A    between atoms: _85  and  _86
REMARK   31  A    between atoms: _91  and  _93
REMARK   32  A    between atoms: _93  and  _94
REMARK   33  A    between atoms: _97  and  _99
REMARK   34  A    between atoms: _99  and  _100
REMARK   35  A    between atoms: _99  and  _102
REMARK   36  A    between atoms: _102  and  _103
REMARK   37  A    between atoms: _108  and  _110
REMARK   38  A    between atoms: _110  and  _111
REMARK   39  A    between atoms: _110  and  _113
REMARK   40  A    between atoms: _113  and  _114
REMARK   41  A    between atoms: _117  and  _119
REMARK   42  A    between atoms: _119  and  _120
REMARK   43  A    between atoms: _119  and  _122
REMARK   44  A    between atoms: _122  and  _123
REMARK   45  A    between atoms: _123  and  _124
REMARK   46  A    between atoms: _129  and  _131
REMARK   47  A    between atoms: _131  and  _132
REMARK   48  A    between atoms: _131  and  _134
REMARK   49  A    between atoms: _134  and  _135
REMARK   50  A    between atoms: _141  and  _143
REMARK   51  A    between atoms: _154  and  _157
REMARK   52  A    between atoms: _157  and  _158
REMARK   53  A    between atoms: _166  and  _167
REMARK   54  A    between atoms: _175  and  _177
REMARK   55  A    between atoms: _177  and  _178
REMARK   56  A    between atoms: _177  and  _180
REMARK   57  A    between atoms: _180  and  _181
REMARK   58  A    between atoms: _181  and  _182
REMARK   59  A    between atoms: _185  and  _187
REMARK   60  A    between atoms: _187  and  _188
REMARK   61  A    between atoms: _187  and  _190
REMARK   62  A    between atoms: _190  and  _191
REMARK   63  A    between atoms: _196  and  _198
REMARK   64  A    between atoms: _198  and  _199
REMARK   65  A    between atoms: _198  and  _201
REMARK   66  A    between atoms: _201  and  _202
REMARK   67  A    between atoms: _202  and  _203
REMARK   68  A    between atoms: _206  and  _208
REMARK   69  A    between atoms: _208  and  _209
REMARK   70  A    between atoms: _208  and  _211
REMARK   71  A    between atoms: _211  and  _212
REMARK   72  A    between atoms: _215  and  _217
REMARK   73  A    between atoms: _217  and  _218
REMARK   74  A    between atoms: _217  and  _220
REMARK   75  A    between atoms: _220  and  _221
REMARK   76  A    between atoms: _222  and  ZN_453
REMARK   77  A    between atoms: _226  and  _228
REMARK   78  A    between atoms: _228  and  _229
REMARK   79  A    between atoms: _228  and  _231
REMARK   80  A    between atoms: _231  and  _232
REMARK   81  A    between atoms: _235  and  _237
REMARK   82  A    between atoms: _237  and  _238
REMARK   83  A    between atoms: _237  and  _240
REMARK   84  A    between atoms: _243  and  _245
REMARK   85  A    between atoms: _245  and  _246
REMARK   86  A    between atoms: _245  and  _248
REMARK   87  A    between atoms: _248  and  _249
REMARK   88  A    between atoms: _254  and  _256
REMARK   89  A    between atoms: _256  and  _257
REMARK   90  A    between atoms: _256  and  _259
REMARK   91  A    between atoms: _259  and  _260
REMARK   92  A    between atoms: _266  and  _268
REMARK   93  A    between atoms: _268  and  _269
REMARK   94  A    between atoms: _271  and  _273
REMARK   95  A    between atoms: _273  and  _274
REMARK   96  A    between atoms: _277  and  _279
REMARK   97  A    between atoms: _279  and  _280
REMARK   98  A    between atoms: _279  and  _282
REMARK   99  A    between atoms: _285  and  _287
REMARK  100  A    between atoms: _287  and  _288
REMARK  101  A    between atoms: _287  and  _290
REMARK  102  A    between atoms: _290  and  _291
REMARK  103  A    between atoms: _291  and  _292
REMARK  104  A    between atoms: _297  and  _299
REMARK  105  A    between atoms: _299  and  _300
REMARK  106  A    between atoms: _299  and  _302
REMARK  107  A    between atoms: _302  and  _303
REMARK  108  A    between atoms: _306  and  _308
REMARK  109  A    between atoms: _308  and  _309
REMARK  110  A    between atoms: _312  and  _314
REMARK  111  A    between atoms: _314  and  _315
REMARK  112  A    between atoms: _314  and  _317
REMARK  113  A    between atoms: _320  and  _322
REMARK  114  A    between atoms: _322  and  _323
REMARK  115  A    between atoms: _322  and  _325
REMARK  116  A    between atoms: _325  and  _326
REMARK  117  A    between atoms: _329  and  _331
REMARK  118  A    between atoms: _331  and  _332
REMARK  119  A    between atoms: _334  and  _336
REMARK  120  A    between atoms: _336  and  _337
REMARK  121  A    between atoms: _336  and  _339
REMARK  122  A    between atoms: _339  and  _340
REMARK  123  A    between atoms: _342  and  _344
REMARK  124  A    between atoms: _344  and  _345
REMARK  125  A    between atoms: _344  and  _347
REMARK  126  A    between atoms: _347  and  _348
REMARK  127  A    between atoms: _351  and  _353
REMARK  128  A    between atoms: _353  and  _354
REMARK  129  A    between atoms: _353  and  _356
REMARK  130  A    between atoms: _356  and  _357
REMARK  131  A    between atoms: _360  and  _362
REMARK  132  A    between atoms: _362  and  _363
REMARK  133  A    between atoms: _362  and  _365
REMARK  134  A    between atoms: _365  and  _366
REMARK  135  A    between atoms: _370  and  _371
REMARK  136  A    between atoms: _377  and  _378
REMARK  137  A    between atoms: _383  and  _385
REMARK  138  A    between atoms: _385  and  _386
REMARK  139  A    between atoms: _385  and  _388
REMARK  140  A    between atoms: _388  and  _389
REMARK  141  A    between atoms: _392  and  _394
REMARK  142  A    between atoms: _394  and  _395
REMARK  143  A    between atoms: _394  and  _397
REMARK  144  A    between atoms: _397  and  _398
REMARK  145  A    between atoms: _401  and  _403
REMARK  146  A    between atoms: _403  and  _404
REMARK  147  A    between atoms: _403  and  _406
REMARK  148  A    between atoms: _409  and  _411
REMARK  149  A    between atoms: _411  and  _412
REMARK  150  A    between atoms: _411  and  _414
REMARK  151  A    between atoms: _414  and  _415
REMARK  152  A    between atoms: _425  and  _427
REMARK  153  A    between atoms: _427  and  _428
REMARK  154  A    between atoms: _427  and  _430
REMARK  155  A    between atoms: _430  and  _431
REMARK  156  A    between atoms: _436  and  _438
REMARK  157  A    between atoms: _438  and  _439
REMARK  158  A    between atoms: _438  and  _441
REMARK  159  A    between atoms: _441  and  _442
REMARK  160  A    between atoms: _442  and  _443
REMARK  161  A    between atoms: _443  and  _444
REMARK                            x       y       z     vdW  Elec       q    Type
REMARK                         _______ _______ _______ _____ _____    ______ ____
ROOT
ATOM      1  C   THR A   4       1.006   1.290  16.462  0.00  0.00    +0.246 C 
ATOM      2  O   THR A   4       0.543   2.232  17.152  0.00  0.00    -0.273 OA
ATOM      3  N   PRO A   5       2.266   1.305  15.987  0.00  0.00    -0.272 N 
ATOM      4  CA  PRO A   5       3.083   2.507  16.184  0.00  0.00    +0.152 C 
ATOM      5  CB  PRO A   5       4.319   2.213  15.329  0.00  0.00    +0.031 C 
ATOM      6  CG  PRO A   5       4.490   0.734  15.496  0.00  0.00    +0.024 C 
ATOM      7  CD  PRO A   5       3.054   0.221  15.371  0.00  0.00    +0.094 C 
ENDROOT
BRANCH   4   8
ATOM      8  C   PRO A   5       2.279   3.694  15.645  0.00  0.00    +0.244 C 
ATOM      9  N   PRO A   6       2.434   4.885  16.243  0.00  0.00    -0.272 N 
ATOM     10  CA  PRO A   6       3.288   5.266  17.372  0.00  0.00    +0.152 C 
ATOM     11  CB  PRO A   6       3.347   6.782  17.237  0.00  0.00    +0.031 C 
ATOM     12  CG  PRO A   6       1.993   7.106  16.737  0.00  0.00    +0.024 C 
ATOM     13  CD  PRO A   6       1.738   6.059  15.694  0.00  0.00    +0.094 C 
ATOM     14  O   PRO A   5       1.552   3.553  14.657  0.00  0.00    -0.273 OA
BRANCH  10  15
ATOM     15  C   PRO A   6       2.892   4.813  18.793  0.00  0.00    +0.241 C 
ATOM     16  O   PRO A   6       3.502   5.254  19.773  0.00  0.00    -0.273 OA
ATOM     17  N   LEU A   7       1.862   3.968  18.898  0.00  0.00    -0.297 N 
ATOM     18  H   LEU A   7       1.356   3.693  18.032  0.00  0.00    +0.150 HD
BRANCH  17  19
ATOM     19  CA  LEU A   7       1.413   3.411  20.179  0.00  0.00    +0.149 C 
BRANCH  19  20
ATOM     20  C   LEU A   7       1.094   4.456  21.255  0.00  0.00    +0.241 C 
ATOM     21  O   LEU A   7       1.328   4.224  22.450  0.00  0.00    -0.273 OA
ATOM     22  N   LEU A   8       0.524   5.581  20.834  0.00  0.00    -0.298 N 
ATOM     23  H   LEU A   8       0.309   5.689  19.822  0.00  0.00    +0.150 HD
BRANCH  22  24
ATOM     24  CA  LEU A   8       0.190   6.672  21.751  0.00  0.00    +0.137 C 
BRANCH  24  25
ATOM     25  C   LEU A   8      -0.843   6.236  22.800  0.00  0.00    +0.227 C 
ATOM     26  O   LEU A   8      -1.814   5.554  22.483  0.00  0.00    -0.286 OA
ENDBRANCH  24  25
BRANCH  24  27
ATOM     27  CB  LEU A   8      -0.296   7.892  20.947  0.00  0.00    +0.028 C 
BRANCH  27  28
ATOM     28  CG  LEU A   8       0.750   8.372  19.920  0.00  0.00    +0.002 C 
ATOM     29  CD2 LEU A   8       2.035   8.770  20.656  0.00  0.00    +0.000 C 
ATOM     30  CD1 LEU A   8       0.240   9.547  19.120  0.00  0.00    +0.000 C 
ENDBRANCH  27  28
ENDBRANCH  24  27
ENDBRANCH  22  24
ENDBRANCH  19  20
BRANCH  19  31
ATOM     31  CB  LEU A   7       2.475   2.447  20.707  0.00  0.00    +0.029 C 
BRANCH  31  32
ATOM     32  CG  LEU A   7       2.969   1.349  19.764  0.00  0.00    +0.002 C 
ATOM     33  CD2 LEU A   7       4.337   0.862  20.242  0.00  0.00    +0.000 C 
ATOM     34  CD1 LEU A   7       1.946   0.201  19.687  0.00  0.00    +0.000 C 
ENDBRANCH  31  32
ENDBRANCH  19  31
ENDBRANCH  17  19
ENDBRANCH  10  15
ENDBRANCH   4   8
BRANCH   1  35
ATOM     35  CA  THR A   4       0.188   0.019  16.219  0.00  0.00    +0.176 C 
BRANCH  35  38
ATOM     36  C   THR A   3      -1.011  -1.150  17.990  0.00  0.00    +0.243 C 
ATOM     37  O   THR A   3      -0.405  -2.214  17.785  0.00  0.00    -0.273 OA
ATOM     38  N   THR A   4      -0.822  -0.048  17.265  0.00  0.00    -0.295 N 
ATOM     39  H   THR A   4      -1.413   0.787  17.452  0.00  0.00    +0.150 HD
BRANCH  36  40
ATOM     40  CA  THR A   3      -2.076  -1.058  19.073  0.00  0.00    +0.176 C 
BRANCH  40  43
ATOM     41  C   LEU A   2      -2.365   1.194  19.895  0.00  0.00    +0.241 C 
ATOM     42  O   LEU A   2      -1.411   1.041  20.681  0.00  0.00    -0.273 OA
ATOM     43  N   THR A   3      -2.763   0.228  19.065  0.00  0.00    -0.295 N 
ATOM     44  H   THR A   3      -3.559   0.392  18.416  0.00  0.00    +0.150 HD
BRANCH  41  45
ATOM     45  CA  LEU A   2      -3.116   2.541  19.863  0.00  0.00    +0.149 C 
BRANCH  45  48
ATOM     46  C   SER A   1      -3.565   2.373  22.281  0.00  0.00    +0.241 C 
ATOM     47  O   SER A   1      -4.329   1.417  22.138  0.00  0.00    -0.274 OA
ATOM     48  N   LEU A   2      -2.987   3.010  21.256  0.00  0.00    -0.297 N 
ATOM     49  H   LEU A   2      -2.427   3.865  21.448  0.00  0.00    +0.150 HD
BRANCH  46  50
ATOM     50  CA  SER A   1      -3.238   2.912  23.686  0.00  0.00    +0.174 C 
BRANCH  50  51
ATOM     51  N   SER A   1      -3.944   2.208  24.746  0.00  0.00    -0.236 NA
ATOM     52  H   SER A   1      -4.143   1.192  24.649  0.00  0.00    +0.142 HD
ENDBRANCH  50  51
BRANCH  50  53
ATOM     53  CB  SER A   1      -1.758   2.687  23.916  0.00  0.00    +0.163 C 
BRANCH  53  54
ATOM     54  OG  SER A   1      -1.485   1.313  23.702  0.00  0.00    -0.380 OA
ATOM     55  H   SER A   1      -1.728   1.070  22.773  0.00  0.00    +0.211 HD
ENDBRANCH  53  54
ENDBRANCH  50  53
ENDBRANCH  46  50
ENDBRANCH  45  48
BRANCH  45  56
ATOM     56  CB  LEU A   2      -2.373   3.488  18.901  0.00  0.00    +0.029 C 
BRANCH  56  57
ATOM     57  CG  LEU A   2      -2.809   4.962  18.871  0.00  0.00    +0.002 C 
ATOM     58  CD2 LEU A   2      -4.250   5.085  18.369  0.00  0.00    +0.000 C 
ATOM     59  CD1 LEU A   2      -1.856   5.766  17.997  0.00  0.00    +0.000 C 
ENDBRANCH  56  57
ENDBRANCH  45  56
ENDBRANCH  41  45
ENDBRANCH  40  43
BRANCH  40  60
ATOM     60  CB  THR A   3      -3.049  -2.217  18.927  0.00  0.00    +0.137 C 
ATOM     61  CG2 THR A   3      -4.072  -2.187  20.042  0.00  0.00    +0.034 C 
BRANCH  60  62
ATOM     62  OG1 THR A   3      -3.712  -2.134  17.662  0.00  0.00    -0.382 OA
ATOM     63  HG1 THR A   3      -4.344  -2.891  17.572  0.00  0.00    +0.210 HD
ENDBRANCH  60  62
ENDBRANCH  40  60
ENDBRANCH  36  40
ENDBRANCH  35  38
BRANCH  35  64
ATOM     64  CB  THR A   4      -0.446   0.072  14.802  0.00  0.00    +0.137 C 
ATOM     65  CG2 THR A   4      -1.291  -1.162  14.532  0.00  0.00    +0.034 C 
BRANCH  64  66
ATOM     66  OG1 THR A   4      -1.290   1.213  14.701  0.00  0.00    -0.382 OA
ATOM     67  HG1 THR A   4      -0.755   2.032  14.854  0.00  0.00    +0.210 HD
ENDBRANCH  64  66
ENDBRANCH  35  64
ENDBRANCH   1  35
TORSDOF 26
REMARK  Name = ../refined-set-2016/1g53/1g53_pocket.pdb
REMARK  161 active torsions:
REMARK  status: ('A' for Active; 'I' for Inactive)
REMARK    1  A    between atoms: _1  and  _3
REMARK    2  A    between atoms: _3  and  _4
REMARK    3  A    between atoms: _3  and  _6
REMARK    4  A    between atoms: _6  and  _7
REMARK    5  A    between atoms: _12  and  _14
REMARK    6  A    between atoms: _14  and  _15
REMARK    7  A    between atoms: _14  and  _17
REMARK    8  A    between atoms: _17  and  _18
REMARK    9  A    between atoms: _28  and  _30
REMARK   10  A    between atoms: _30  and  _31
REMARK   11  A    between atoms: _30  and  _33
REMARK   12  A    between atoms: _33  and  _34
REMARK   13  A    between atoms: _39  and  _40
REMARK   14  A    between atoms: _42  and  _44
REMARK   15  A    between atoms: _44  and  _45
REMARK   16  A    between atoms: _44  and  _47
REMARK   17  A    between atoms: _47  and  _48
REMARK   18  A    between atoms: _54  and  _56
REMARK   19  A    between atoms: _56  and  _57
REMARK   20  A    between atoms: _56  and  _59
REMARK   21  A    between atoms: _59  and  _60
REMARK   22  A    between atoms: _63  and  _64
REMARK   23  A    between atoms: _69  and  _71
REMARK   24  A    between atoms: _71  and  _72
REMARK   25  A    between atoms: _71  and  _74
REMARK   26  A    between atoms: _74  and  _75
REMARK   27  A    between atoms: _80  and  _82
REMARK   28  A    between atoms: _82  and  _83
REMARK   29  A    between atoms: _82  and  _85
REMARK   30  A    between atoms: _85  and  _86
REMARK   31  A    between atoms: _91  and  _93
REMARK   32  A    between atoms: _93  and  _94
REMARK   33  A    between atoms: _97  and  _99
REMARK   34  A    between atoms: _99  and  _100
REMARK   35  A    between atoms: _99  and  _102
REMARK   36  A    between atoms: _102  and  _103
REMARK   37  A    between atoms: _108  and  _110
REMARK   38  A    between atoms: _110  and  _111
REMARK   39  A    between atoms: _110  and  _113
REMARK   40  A    between atoms: _113  and  _114
REMARK   41  A    between atoms: _117  and  _119
REMARK   42  A    between atoms: _119  and  _120
REMARK   43  A    between atoms: _119  and  _122
REMARK   44  A    between atoms: _122  and  _123
REMARK   45  A    between atoms: _123  and  _124
REMARK   46  A    between atoms: _129  and  _131
REMARK   47  A    between atoms: _131  and  _132
REMARK   48  A    between atoms: _131  and  _134
REMARK   49  A    between atoms: _134  and  _135
REMARK   50  A    between atoms: _141  and  _143
REMARK   51  A    between atoms: _154  and  _157
REMARK   52  A    between atoms: _157  and  _158
REMARK   53  A    between atoms: _166  and  _167
REMARK   54  A    between atoms: _175  and  _177
REMARK   55  A    between atoms: _177  and  _178
REMARK   56  A    between atoms: _177  and  _180
REMARK   57  A    between atoms: _180  and  _181
REMARK   58  A    between atoms: _181  and  _182
REMARK   59  A    between atoms: _185  and  _187
REMARK   60  A    between atoms: _187  and  _188
REMARK   61  A    between atoms: _187  and  _190
REMARK   62  A    between atoms: _190  and  _191
REMARK   63  A    between atoms: _196  and  _198
REMARK   64  A    between atoms: _198  and  _199
REMARK   65  A    between atoms: _198  and  _201
REMARK   66  A    between atoms: _201  and  _202
REMARK   67  A    between atoms: _202  and  _203
REMARK   68  A    between atoms: _206  and  _208
REMARK   69  A    between atoms: _208  and  _209
REMARK   70  A    between atoms: _208  and  _211
REMARK   71  A    between atoms: _211  and  _212
REMARK   72  A    between atoms: _215  and  _217
REMARK   73  A    between atoms: _217  and  _218
REMARK   74  A    between atoms: _217  and  _220
REMARK   75  A    between atoms: _220  and  _221
REMARK   76  A    between atoms: _222  and  ZN_453
REMARK   77  A    between atoms: _226  and  _228
REMARK   78  A    between atoms: _228  and  _229
REMARK   79  A    between atoms: _228  and  _231
REMARK   80  A    between atoms: _231  and  _232
REMARK   81  A    between atoms: _235  and  _237
REMARK   82  A    between atoms: _237  and  _238
REMARK   83  A    between atoms: _237  and  _240
REMARK   84  A    between atoms: _243  and  _245
REMARK   85  A    between atoms: _245  and  _246
REMARK   86  A    between atoms: _245  and  _248
REMARK   87  A    between atoms: _248  and  _249
REMARK   88  A    between atoms: _254  and  _256
REMARK   89  A    between atoms: _256  and  _257
REMARK   90  A    between atoms: _256  and  _259
REMARK   91  A    between atoms: _259  and  _260
REMARK   92  A    between atoms: _266  and  _268
REMARK   93  A    between atoms: _268  and  _269
REMARK   94  A    between atoms: _271  and  _273
REMARK   95  A    between atoms: _273  and  _274
REMARK   96  A    between atoms: _277  and  _279
REMARK   97  A    between atoms: _279  and  _280
REMARK   98  A    between atoms: _279  and  _282
REMARK   99  A    between atoms: _285  and  _287
REMARK  100  A    between atoms: _287  and  _288
REMARK  101  A    between atoms: _287  and  _290
REMARK  102  A    between atoms: _290  and  _291
REMARK  103  A    between atoms: _291  and  _292
REMARK  104  A    between atoms: _297  and  _299
REMARK  105  A    between atoms: _299  and  _300
REMARK  106  A    between atoms: _299  and  _302
REMARK  107  A    between atoms: _302  and  _303
REMARK  108  A    between atoms: _306  and  _308
REMARK  109  A    between atoms: _308  and  _309
REMARK  110  A    between atoms: _312  and  _314
REMARK  111  A    between atoms: _314  and  _315
REMARK  112  A    between atoms: _314  and  _317
REMARK  113  A    between atoms: _320  and  _322
REMARK  114  A    between atoms: _322  and  _323
REMARK  115  A    between atoms: _322  and  _325
REMARK  116  A    between atoms: _325  and  _326
REMARK  117  A    between atoms: _329  and  _331
REMARK  118  A    between atoms: _331  and  _332
REMARK  119  A    between atoms: _334  and  _336
REMARK  120  A    between atoms: _336  and  _337
REMARK  121  A    between atoms: _336  and  _339
REMARK  122  A    between atoms: _339  and  _340
REMARK  123  A    between atoms: _342  and  _344
REMARK  124  A    between atoms: _344  and  _345
REMARK  125  A    between atoms: _344  and  _347
REMARK  126  A    between atoms: _347  and  _348
REMARK  127  A    between atoms: _351  and  _353
REMARK  128  A    between atoms: _353  and  _354
REMARK  129  A    between atoms: _353  and  _356
REMARK  130  A    between atoms: _356  and  _357
REMARK  131  A    between atoms: _360  and  _362
REMARK  132  A    between atoms: _362  and  _363
REMARK  133  A    between atoms: _362  and  _365
REMARK  134  A    between atoms: _365  and  _366
REMARK  135  A    between atoms: _370  and  _371
REMARK  136  A    between atoms: _377  and  _378
REMARK  137  A    between atoms: _383  and  _385
REMARK  138  A    between atoms: _385  and  _386
REMARK  139  A    between atoms: _385  and  _388
REMARK  140  A    between atoms: _388  and  _389
REMARK  141  A    between atoms: _392  and  _394
REMARK  142  A    between atoms: _394  and  _395
REMARK  143  A    between atoms: _394  and  _397
REMARK  144  A    between atoms: _397  and  _398
REMARK  145  A    between atoms: _401  and  _403
REMARK  146  A    between atoms: _403  and  _404
REMARK  147  A    between atoms: _403  and  _406
REMARK  148  A    between atoms: _409  and  _411
REMARK  149  A    between atoms: _411  and  _412
REMARK  150  A    between atoms: _411  and  _414
REMARK  151  A    between atoms: _414  and  _415
REMARK  152  A    between atoms: _425  and  _427
REMARK  153  A    between atoms: _427  and  _428
REMARK  154  A    between atoms: _427  and  _430
REMARK  155  A    between atoms: _430  and  _431
REMARK  156  A    between atoms: _436  and  _438
REMARK  157  A    between atoms: _438  and  _439
REMARK  158  A    between atoms: _438  and  _441
REMARK  159  A    between atoms: _441  and  _442
REMARK  160  A    between atoms: _442  and  _443
REMARK  161  A    between atoms: _443  and  _444
REMARK                            x       y       z     vdW  Elec       q    Type
REMARK                         _______ _______ _______ _____ _____    ______ ____
ROOT
ATOM      1  CA  VAL A   1      -7.327   5.616  24.126  0.00  0.00    +0.133 C 
ENDROOT
BRANCH   1   2
ATOM      2  CB  VAL A   1      -7.095   4.467  23.112  0.00  0.00    +0.023 C 
ATOM      3  CG2 VAL A   1      -8.437   3.792  22.726  0.00  0.00    +0.002 C 
ATOM      4  CG1 VAL A   1      -6.368   4.992  21.900  0.00  0.00    +0.002 C 
ENDBRANCH   1   2
BRANCH   1   5
ATOM      5  N   VAL A   1      -6.068   6.317  24.351  0.00  0.00    -0.239 NA
ATOM      6  H   VAL A   1      -5.233   5.793  24.681  0.00  0.00    +0.142 HD
ENDBRANCH   1   5
BRANCH   1   7
ATOM      7  C   VAL A   1      -8.154   5.029  25.272  0.00  0.00    +0.224 C 
ATOM      8  O   VAL A   1      -7.620   4.386  26.186  0.00  0.00    -0.287 OA
ENDBRANCH   1   7
TORSDOF 3
REMARK  Name = ../refined-set-2016/1g53/1g53_pocket.pdb
REMARK  161 active torsions:
REMARK  status: ('A' for Active; 'I' for Inactive)
REMARK    1  A    between atoms: _1  and  _3
REMARK    2  A    between atoms: _3  and  _4
REMARK    3  A    between atoms: _3  and  _6
REMARK    4  A    between atoms: _6  and  _7
REMARK    5  A    between atoms: _12  and  _14
REMARK    6  A    between atoms: _14  and  _15
REMARK    7  A    between atoms: _14  and  _17
REMARK    8  A    between atoms: _17  and  _18
REMARK    9  A    between atoms: _28  and  _30
REMARK   10  A    between atoms: _30  and  _31
REMARK   11  A    between atoms: _30  and  _33
REMARK   12  A    between atoms: _33  and  _34
REMARK   13  A    between atoms: _39  and  _40
REMARK   14  A    between atoms: _42  and  _44
REMARK   15  A    between atoms: _44  and  _45
REMARK   16  A    between atoms: _44  and  _47
REMARK   17  A    between atoms: _47  and  _48
REMARK   18  A    between atoms: _54  and  _56
REMARK   19  A    between atoms: _56  and  _57
REMARK   20  A    between atoms: _56  and  _59
REMARK   21  A    between atoms: _59  and  _60
REMARK   22  A    between atoms: _63  and  _64
REMARK   23  A    between atoms: _69  and  _71
REMARK   24  A    between atoms: _71  and  _72
REMARK   25  A    between atoms: _71  and  _74
REMARK   26  A    between atoms: _74  and  _75
REMARK   27  A    between atoms: _80  and  _82
REMARK   28  A    between atoms: _82  and  _83
REMARK   29  A    between atoms: _82  and  _85
REMARK   30  A    between atoms: _85  and  _86
REMARK   31  A    between atoms: _91  and  _93
REMARK   32  A    between atoms: _93  and  _94
REMARK   33  A    between atoms: _97  and  _99
REMARK   34  A    between atoms: _99  and  _100
REMARK   35  A    between atoms: _99  and  _102
REMARK   36  A    between atoms: _102  and  _103
REMARK   37  A    between atoms: _108  and  _110
REMARK   38  A    between atoms: _110  and  _111
REMARK   39  A    between atoms: _110  and  _113
REMARK   40  A    between atoms: _113  and  _114
REMARK   41  A    between atoms: _117  and  _119
REMARK   42  A    between atoms: _119  and  _120
REMARK   43  A    between atoms: _119  and  _122
REMARK   44  A    between atoms: _122  and  _123
REMARK   45  A    between atoms: _123  and  _124
REMARK   46  A    between atoms: _129  and  _131
REMARK   47  A    between atoms: _131  and  _132
REMARK   48  A    between atoms: _131  and  _134
REMARK   49  A    between atoms: _134  and  _135
REMARK   50  A    between atoms: _141  and  _143
REMARK   51  A    between atoms: _154  and  _157
REMARK   52  A    between atoms: _157  and  _158
REMARK   53  A    between atoms: _166  and  _167
REMARK   54  A    between atoms: _175  and  _177
REMARK   55  A    between atoms: _177  and  _178
REMARK   56  A    between atoms: _177  and  _180
REMARK   57  A    between atoms: _180  and  _181
REMARK   58  A    between atoms: _181  and  _182
REMARK   59  A    between atoms: _185  and  _187
REMARK   60  A    between atoms: _187  and  _188
REMARK   61  A    between atoms: _187  and  _190
REMARK   62  A    between atoms: _190  and  _191
REMARK   63  A    between atoms: _196  and  _198
REMARK   64  A    between atoms: _198  and  _199
REMARK   65  A    between atoms: _198  and  _201
REMARK   66  A    between atoms: _201  and  _202
REMARK   67  A    between atoms: _202  and  _203
REMARK   68  A    between atoms: _206  and  _208
REMARK   69  A    between atoms: _208  and  _209
REMARK   70  A    between atoms: _208  and  _211
REMARK   71  A    between atoms: _211  and  _212
REMARK   72  A    between atoms: _215  and  _217
REMARK   73  A    between atoms: _217  and  _218
REMARK   74  A    between atoms: _217  and  _220
REMARK   75  A    between atoms: _220  and  _221
REMARK   76  A    between atoms: _222  and  ZN_453
REMARK   77  A    between atoms: _226  and  _228
REMARK   78  A    between atoms: _228  and  _229
REMARK   79  A    between atoms: _228  and  _231
REMARK   80  A    between atoms: _231  and  _232
REMARK   81  A    between atoms: _235  and  _237
REMARK   82  A    between atoms: _237  and  _238
REMARK   83  A    between atoms: _237  and  _240
REMARK   84  A    between atoms: _243  and  _245
REMARK   85  A    between atoms: _245  and  _246
REMARK   86  A    between atoms: _245  and  _248
REMARK   87  A    between atoms: _248  and  _249
REMARK   88  A    between atoms: _254  and  _256
REMARK   89  A    between atoms: _256  and  _257
REMARK   90  A    between atoms: _256  and  _259
REMARK   91  A    between atoms: _259  and  _260
REMARK   92  A    between atoms: _266  and  _268
REMARK   93  A    between atoms: _268  and  _269
REMARK   94  A    between atoms: _271  and  _273
REMARK   95  A    between atoms: _273  and  _274
REMARK   96  A    between atoms: _277  and  _279
REMARK   97  A    between atoms: _279  and  _280
REMARK   98  A    between atoms: _279  and  _282
REMARK   99  A    between atoms: _285  and  _287
REMARK  100  A    between atoms: _287  and  _288
REMARK  101  A    between atoms: _287  and  _290
REMARK  102  A    between atoms: _290  and  _291
REMARK  103  A    between atoms: _291  and  _292
REMARK  104  A    between atoms: _297  and  _299
REMARK  105  A    between atoms: _299  and  _300
REMARK  106  A    between atoms: _299  and  _302
REMARK  107  A    between atoms: _302  and  _303
REMARK  108  A    between atoms: _306  and  _308
REMARK  109  A    between atoms: _308  and  _309
REMARK  110  A    between atoms: _312  and  _314
REMARK  111  A    between atoms: _314  and  _315
REMARK  112  A    between atoms: _314  and  _317
REMARK  113  A    between atoms: _320  and  _322
REMARK  114  A    between atoms: _322  and  _323
REMARK  115  A    between atoms: _322  and  _325
REMARK  116  A    between atoms: _325  and  _326
REMARK  117  A    between atoms: _329  and  _331
REMARK  118  A    between atoms: _331  and  _332
REMARK  119  A    between atoms: _334  and  _336
REMARK  120  A    between atoms: _336  and  _337
REMARK  121  A    between atoms: _336  and  _339
REMARK  122  A    between atoms: _339  and  _340
REMARK  123  A    between atoms: _342  and  _344
REMARK  124  A    between atoms: _344  and  _345
REMARK  125  A    between atoms: _344  and  _347
REMARK  126  A    between atoms: _347  and  _348
REMARK  127  A    between atoms: _351  and  _353
REMARK  128  A    between atoms: _353  and  _354
REMARK  129  A    between atoms: _353  and  _356
REMARK  130  A    between atoms: _356  and  _357
REMARK  131  A    between atoms: _360  and  _362
REMARK  132  A    between atoms: _362  and  _363
REMARK  133  A    between atoms: _362  and  _365
REMARK  134  A    between atoms: _365  and  _366
REMARK  135  A    between atoms: _370  and  _371
REMARK  136  A    between atoms: _377  and  _378
REMARK  137  A    between atoms: _383  and  _385
REMARK  138  A    between atoms: _385  and  _386
REMARK  139  A    between atoms: _385  and  _388
REMARK  140  A    between atoms: _388  and  _389
REMARK  141  A    between atoms: _392  and  _394
REMARK  142  A    between atoms: _394  and  _395
REMARK  143  A    between atoms: _394  and  _397
REMARK  144  A    between atoms: _397  and  _398
REMARK  145  A    between atoms: _401  and  _403
REMARK  146  A    between atoms: _403  and  _404
REMARK  147  A    between atoms: _403  and  _406
REMARK  148  A    between atoms: _409  and  _411
REMARK  149  A    between atoms: _411  and  _412
REMARK  150  A    between atoms: _411  and  _414
REMARK  151  A    between atoms: _414  and  _415
REMARK  152  A    between atoms: _425  and  _427
REMARK  153  A    between atoms: _427  and  _428
REMARK  154  A    between atoms: _427  and  _430
REMARK  155  A    between atoms: _430  and  _431
REMARK  156  A    between atoms: _436  and  _438
REMARK  157  A    between atoms: _438  and  _439
REMARK  158  A    between atoms: _438  and  _441
REMARK  159  A    between atoms: _441  and  _442
REMARK  160  A    between atoms: _442  and  _443
REMARK  161  A    between atoms: _443  and  _444
REMARK                            x       y       z     vdW  Elec       q    Type
REMARK                         _______ _______ _______ _____ _____    ______ ____
ROOT
ATOM      1  CG  TRP A   1      -8.870   0.147  24.206  0.00  0.00    -0.002 A 
ATOM      2  CD1 TRP A   1      -7.640   0.708  24.368  0.00  0.00    +0.068 A 
ATOM      3  NE1 TRP A   1      -6.910   0.596  23.191  0.00  0.00    -0.352 N 
ATOM      4  HE1 TRP A   1      -5.942   0.946  23.045  0.00  0.00    +0.166 HD
ATOM      5  CE2 TRP A   1      -7.673  -0.051  22.253  0.00  0.00    +0.056 A 
ATOM      6  CZ2 TRP A   1      -7.376  -0.401  20.923  0.00  0.00    +0.017 A 
ATOM      7  CH2 TRP A   1      -8.353  -1.059  20.203  0.00  0.00    +0.001 A 
ATOM      8  CZ3 TRP A   1      -9.602  -1.365  20.776  0.00  0.00    +0.000 A 
ATOM      9  CE3 TRP A   1      -9.893  -1.013  22.100  0.00  0.00    +0.001 A 
ATOM     10  CD2 TRP A   1      -8.918  -0.347  22.855  0.00  0.00    +0.013 A 
ENDROOT
BRANCH   1  11
ATOM     11  CB  TRP A   1      -9.944   0.045  25.216  0.00  0.00    +0.053 C 
BRANCH  11  12
ATOM     12  CA  TRP A   1     -10.999   1.137  25.069  0.00  0.00    +0.137 C 
BRANCH  12  13
ATOM     13  N   TRP A   1     -10.561   2.306  25.766  0.00  0.00    -0.239 NA
ATOM     14  H   TRP A   1      -9.946   2.211  26.600  0.00  0.00    +0.142 HD
ENDBRANCH  12  13
BRANCH  12  15
ATOM     15  C   TRP A   1     -12.345   0.667  25.588  0.00  0.00    +0.224 C 
ATOM     16  O   TRP A   1     -12.556   0.604  26.802  0.00  0.00    -0.287 OA
ENDBRANCH  12  15
ENDBRANCH  11  12
ENDBRANCH   1  11
TORSDOF 4
REMARK  Name = ../refined-set-2016/1g53/1g53_pocket.pdb
REMARK  161 active torsions:
REMARK  status: ('A' for Active; 'I' for Inactive)
REMARK    1  A    between atoms: _1  and  _3
REMARK    2  A    between atoms: _3  and  _4
REMARK    3  A    between atoms: _3  and  _6
REMARK    4  A    between atoms: _6  and  _7
REMARK    5  A    between atoms: _12  and  _14
REMARK    6  A    between atoms: _14  and  _15
REMARK    7  A    between atoms: _14  and  _17
REMARK    8  A    between atoms: _17  and  _18
REMARK    9  A    between atoms: _28  and  _30
REMARK   10  A    between atoms: _30  and  _31
REMARK   11  A    between atoms: _30  and  _33
REMARK   12  A    between atoms: _33  and  _34
REMARK   13  A    between atoms: _39  and  _40
REMARK   14  A    between atoms: _42  and  _44
REMARK   15  A    between atoms: _44  and  _45
REMARK   16  A    between atoms: _44  and  _47
REMARK   17  A    between atoms: _47  and  _48
REMARK   18  A    between atoms: _54  and  _56
REMARK   19  A    between atoms: _56  and  _57
REMARK   20  A    between atoms: _56  and  _59
REMARK   21  A    between atoms: _59  and  _60
REMARK   22  A    between atoms: _63  and  _64
REMARK   23  A    between atoms: _69  and  _71
REMARK   24  A    between atoms: _71  and  _72
REMARK   25  A    between atoms: _71  and  _74
REMARK   26  A    between atoms: _74  and  _75
REMARK   27  A    between atoms: _80  and  _82
REMARK   28  A    between atoms: _82  and  _83
REMARK   29  A    between atoms: _82  and  _85
REMARK   30  A    between atoms: _85  and  _86
REMARK   31  A    between atoms: _91  and  _93
REMARK   32  A    between atoms: _93  and  _94
REMARK   33  A    between atoms: _97  and  _99
REMARK   34  A    between atoms: _99  and  _100
REMARK   35  A    between atoms: _99  and  _102
REMARK   36  A    between atoms: _102  and  _103
REMARK   37  A    between atoms: _108  and  _110
REMARK   38  A    between atoms: _110  and  _111
REMARK   39  A    between atoms: _110  and  _113
REMARK   40  A    between atoms: _113  and  _114
REMARK   41  A    between atoms: _117  and  _119
REMARK   42  A    between atoms: _119  and  _120
REMARK   43  A    between atoms: _119  and  _122
REMARK   44  A    between atoms: _122  and  _123
REMARK   45  A    between atoms: _123  and  _124
REMARK   46  A    between atoms: _129  and  _131
REMARK   47  A    between atoms: _131  and  _132
REMARK   48  A    between atoms: _131  and  _134
REMARK   49  A    between atoms: _134  and  _135
REMARK   50  A    between atoms: _141  and  _143
REMARK   51  A    between atoms: _154  and  _157
REMARK   52  A    between atoms: _157  and  _158
REMARK   53  A    between atoms: _166  and  _167
REMARK   54  A    between atoms: _175  and  _177
REMARK   55  A    between atoms: _177  and  _178
REMARK   56  A    between atoms: _177  and  _180
REMARK   57  A    between atoms: _180  and  _181
REMARK   58  A    between atoms: _181  and  _182
REMARK   59  A    between atoms: _185  and  _187
REMARK   60  A    between atoms: _187  and  _188
REMARK   61  A    between atoms: _187  and  _190
REMARK   62  A    between atoms: _190  and  _191
REMARK   63  A    between atoms: _196  and  _198
REMARK   64  A    between atoms: _198  and  _199
REMARK   65  A    between atoms: _198  and  _201
REMARK   66  A    between atoms: _201  and  _202
REMARK   67  A    between atoms: _202  and  _203
REMARK   68  A    between atoms: _206  and  _208
REMARK   69  A    between atoms: _208  and  _209
REMARK   70  A    between atoms: _208  and  _211
REMARK   71  A    between atoms: _211  and  _212
REMARK   72  A    between atoms: _215  and  _217
REMARK   73  A    between atoms: _217  and  _218
REMARK   74  A    between atoms: _217  and  _220
REMARK   75  A    between atoms: _220  and  _221
REMARK   76  A    between atoms: _222  and  ZN_453
REMARK   77  A    between atoms: _226  and  _228
REMARK   78  A    between atoms: _228  and  _229
REMARK   79  A    between atoms: _228  and  _231
REMARK   80  A    between atoms: _231  and  _232
REMARK   81  A    between atoms: _235  and  _237
REMARK   82  A    between atoms: _237  and  _238
REMARK   83  A    between atoms: _237  and  _240
REMARK   84  A    between atoms: _243  and  _245
REMARK   85  A    between atoms: _245  and  _246
REMARK   86  A    between atoms: _245  and  _248
REMARK   87  A    between atoms: _248  and  _249
REMARK   88  A    between atoms: _254  and  _256
REMARK   89  A    between atoms: _256  and  _257
REMARK   90  A    between atoms: _256  and  _259
REMARK   91  A    between atoms: _259  and  _260
REMARK   92  A    between atoms: _266  and  _268
REMARK   93  A    between atoms: _268  and  _269
REMARK   94  A    between atoms: _271  and  _273
REMARK   95  A    between atoms: _273  and  _274
REMARK   96  A    between atoms: _277  and  _279
REMARK   97  A    between atoms: _279  and  _280
REMARK   98  A    between atoms: _279  and  _282
REMARK   99  A    between atoms: _285  and  _287
REMARK  100  A    between atoms: _287  and  _288
REMARK  101  A    between atoms: _287  and  _290
REMARK  102  A    between atoms: _290  and  _291
REMARK  103  A    between atoms: _291  and  _292
REMARK  104  A    between atoms: _297  and  _299
REMARK  105  A    between atoms: _299  and  _300
REMARK  106  A    between atoms: _299  and  _302
REMARK  107  A    between atoms: _302  and  _303
REMARK  108  A    between atoms: _306  and  _308
REMARK  109  A    between atoms: _308  and  _309
REMARK  110  A    between atoms: _312  and  _314
REMARK  111  A    between atoms: _314  and  _315
REMARK  112  A    between atoms: _314  and  _317
REMARK  113  A    between atoms: _320  and  _322
REMARK  114  A    between atoms: _322  and  _323
REMARK  115  A    between atoms: _322  and  _325
REMARK  116  A    between atoms: _325  and  _326
REMARK  117  A    between atoms: _329  and  _331
REMARK  118  A    between atoms: _331  and  _332
REMARK  119  A    between atoms: _334  and  _336
REMARK  120  A    between atoms: _336  and  _337
REMARK  121  A    between atoms: _336  and  _339
REMARK  122  A    between atoms: _339  and  _340
REMARK  123  A    between atoms: _342  and  _344
REMARK  124  A    between atoms: _344  and  _345
REMARK  125  A    between atoms: _344  and  _347
REMARK  126  A    between atoms: _347  and  _348
REMARK  127  A    between atoms: _351  and  _353
REMARK  128  A    between atoms: _353  and  _354
REMARK  129  A    between atoms: _353  and  _356
REMARK  130  A    between atoms: _356  and  _357
REMARK  131  A    between atoms: _360  and  _362
REMARK  132  A    between atoms: _362  and  _363
REMARK  133  A    between atoms: _362  and  _365
REMARK  134  A    between atoms: _365  and  _366
REMARK  135  A    between atoms: _370  and  _371
REMARK  136  A    between atoms: _377  and  _378
REMARK  137  A    between atoms: _383  and  _385
REMARK  138  A    between atoms: _385  and  _386
REMARK  139  A    between atoms: _385  and  _388
REMARK  140  A    between atoms: _388  and  _389
REMARK  141  A    between atoms: _392  and  _394
REMARK  142  A    between atoms: _394  and  _395
REMARK  143  A    between atoms: _394  and  _397
REMARK  144  A    between atoms: _397  and  _398
REMARK  145  A    between atoms: _401  and  _403
REMARK  146  A    between atoms: _403  and  _404
REMARK  147  A    between atoms: _403  and  _406
REMARK  148  A    between atoms: _409  and  _411
REMARK  149  A    between atoms: _411  and  _412
REMARK  150  A    between atoms: _411  and  _414
REMARK  151  A    between atoms: _414  and  _415
REMARK  152  A    between atoms: _425  and  _427
REMARK  153  A    between atoms: _427  and  _428
REMARK  154  A    between atoms: _427  and  _430
REMARK  155  A    between atoms: _430  and  _431
REMARK  156  A    between atoms: _436  and  _438
REMARK  157  A    between atoms: _438  and  _439
REMARK  158  A    between atoms: _438  and  _441
REMARK  159  A    between atoms: _441  and  _442
REMARK  160  A    between atoms: _442  and  _443
REMARK  161  A    between atoms: _443  and  _444
REMARK                            x       y       z     vdW  Elec       q    Type
REMARK                         _______ _______ _______ _____ _____    ______ ____
ROOT
ATOM      1  CB  ASN A   1      -2.073  -7.277  10.481  0.00  0.00    +0.110 C 
ENDROOT
BRANCH   1   2
ATOM      2  CG  ASN A   1      -3.590  -7.403  10.322  0.00  0.00    +0.221 C 
ATOM      3  OD1 ASN A   1      -4.215  -8.284  10.910  0.00  0.00    -0.275 OA
ATOM      4  ND2 ASN A   1      -4.183  -6.517   9.516  0.00  0.00    -0.329 N 
ATOM      5 HD21 ASN A   1      -5.211  -6.557   9.367  0.00  0.00    +0.145 HD
ATOM      6 HD22 ASN A   1      -3.616  -5.788   9.038  0.00  0.00    +0.145 HD
ENDBRANCH   1   2
BRANCH   1   7
ATOM      7  CA  ASN A   1      -1.512  -8.157  11.609  0.00  0.00    +0.142 C 
BRANCH   7   8
ATOM      8  N   ASN A   1      -1.889  -9.538  11.398  0.00  0.00    -0.239 NA
ATOM      9  H   ASN A   1      -2.805  -9.753  10.955  0.00  0.00    +0.142 HD
ENDBRANCH   7   8
BRANCH   7  10
ATOM     10  C   ASN A   1      -2.056  -7.719  12.966  0.00  0.00    +0.225 C 
ATOM     11  O   ASN A   1      -2.763  -6.720  13.057  0.00  0.00    -0.287 OA
ENDBRANCH   7  10
ENDBRANCH   1   7
TORSDOF 4
REMARK  Name = ../refined-set-2016/1g53/1g53_pocket.pdb
REMARK  161 active torsions:
REMARK  status: ('A' for Active; 'I' for Inactive)
REMARK    1  A    between atoms: _1  and  _3
REMARK    2  A    between atoms: _3  and  _4
REMARK    3  A    between atoms: _3  and  _6
REMARK    4  A    between atoms: _6  and  _7
REMARK    5  A    between atoms: _12  and  _14
REMARK    6  A    between atoms: _14  and  _15
REMARK    7  A    between atoms: _14  and  _17
REMARK    8  A    between atoms: _17  and  _18
REMARK    9  A    between atoms: _28  and  _30
REMARK   10  A    between atoms: _30  and  _31
REMARK   11  A    between atoms: _30  and  _33
REMARK   12  A    between atoms: _33  and  _34
REMARK   13  A    between atoms: _39  and  _40
REMARK   14  A    between atoms: _42  and  _44
REMARK   15  A    between atoms: _44  and  _45
REMARK   16  A    between atoms: _44  and  _47
REMARK   17  A    between atoms: _47  and  _48
REMARK   18  A    between atoms: _54  and  _56
REMARK   19  A    between atoms: _56  and  _57
REMARK   20  A    between atoms: _56  and  _59
REMARK   21  A    between atoms: _59  and  _60
REMARK   22  A    between atoms: _63  and  _64
REMARK   23  A    between atoms: _69  and  _71
REMARK   24  A    between atoms: _71  and  _72
REMARK   25  A    between atoms: _71  and  _74
REMARK   26  A    between atoms: _74  and  _75
REMARK   27  A    between atoms: _80  and  _82
REMARK   28  A    between atoms: _82  and  _83
REMARK   29  A    between atoms: _82  and  _85
REMARK   30  A    between atoms: _85  and  _86
REMARK   31  A    between atoms: _91  and  _93
REMARK   32  A    between atoms: _93  and  _94
REMARK   33  A    between atoms: _97  and  _99
REMARK   34  A    between atoms: _99  and  _100
REMARK   35  A    between atoms: _99  and  _102
REMARK   36  A    between atoms: _102  and  _103
REMARK   37  A    between atoms: _108  and  _110
REMARK   38  A    between atoms: _110  and  _111
REMARK   39  A    between atoms: _110  and  _113
REMARK   40  A    between atoms: _113  and  _114
REMARK   41  A    between atoms: _117  and  _119
REMARK   42  A    between atoms: _119  and  _120
REMARK   43  A    between atoms: _119  and  _122
REMARK   44  A    between atoms: _122  and  _123
REMARK   45  A    between atoms: _123  and  _124
REMARK   46  A    between atoms: _129  and  _131
REMARK   47  A    between atoms: _131  and  _132
REMARK   48  A    between atoms: _131  and  _134
REMARK   49  A    between atoms: _134  and  _135
REMARK   50  A    between atoms: _141  and  _143
REMARK   51  A    between atoms: _154  and  _157
REMARK   52  A    between atoms: _157  and  _158
REMARK   53  A    between atoms: _166  and  _167
REMARK   54  A    between atoms: _175  and  _177
REMARK   55  A    between atoms: _177  and  _178
REMARK   56  A    between atoms: _177  and  _180
REMARK   57  A    between atoms: _180  and  _181
REMARK   58  A    between atoms: _181  and  _182
REMARK   59  A    between atoms: _185  and  _187
REMARK   60  A    between atoms: _187  and  _188
REMARK   61  A    between atoms: _187  and  _190
REMARK   62  A    between atoms: _190  and  _191
REMARK   63  A    between atoms: _196  and  _198
REMARK   64  A    between atoms: _198  and  _199
REMARK   65  A    between atoms: _198  and  _201
REMARK   66  A    between atoms: _201  and  _202
REMARK   67  A    between atoms: _202  and  _203
REMARK   68  A    between atoms: _206  and  _208
REMARK   69  A    between atoms: _208  and  _209
REMARK   70  A    between atoms: _208  and  _211
REMARK   71  A    between atoms: _211  and  _212
REMARK   72  A    between atoms: _215  and  _217
REMARK   73  A    between atoms: _217  and  _218
REMARK   74  A    between atoms: _217  and  _220
REMARK   75  A    between atoms: _220  and  _221
REMARK   76  A    between atoms: _222  and  ZN_453
REMARK   77  A    between atoms: _226  and  _228
REMARK   78  A    between atoms: _228  and  _229
REMARK   79  A    between atoms: _228  and  _231
REMARK   80  A    between atoms: _231  and  _232
REMARK   81  A    between atoms: _235  and  _237
REMARK   82  A    between atoms: _237  and  _238
REMARK   83  A    between atoms: _237  and  _240
REMARK   84  A    between atoms: _243  and  _245
REMARK   85  A    between atoms: _245  and  _246
REMARK   86  A    between atoms: _245  and  _248
REMARK   87  A    between atoms: _248  and  _249
REMARK   88  A    between atoms: _254  and  _256
REMARK   89  A    between atoms: _256  and  _257
REMARK   90  A    between atoms: _256  and  _259
REMARK   91  A    between atoms: _259  and  _260
REMARK   92  A    between atoms: _266  and  _268
REMARK   93  A    between atoms: _268  and  _269
REMARK   94  A    between atoms: _271  and  _273
REMARK   95  A    between atoms: _273  and  _274
REMARK   96  A    between atoms: _277  and  _279
REMARK   97  A    between atoms: _279  and  _280
REMARK   98  A    between atoms: _279  and  _282
REMARK   99  A    between atoms: _285  and  _287
REMARK  100  A    between atoms: _287  and  _288
REMARK  101  A    between atoms: _287  and  _290
REMARK  102  A    between atoms: _290  and  _291
REMARK  103  A    between atoms: _291  and  _292
REMARK  104  A    between atoms: _297  and  _299
REMARK  105  A    between atoms: _299  and  _300
REMARK  106  A    between atoms: _299  and  _302
REMARK  107  A    between atoms: _302  and  _303
REMARK  108  A    between atoms: _306  and  _308
REMARK  109  A    between atoms: _308  and  _309
REMARK  110  A    between atoms: _312  and  _314
REMARK  111  A    between atoms: _314  and  _315
REMARK  112  A    between atoms: _314  and  _317
REMARK  113  A    between atoms: _320  and  _322
REMARK  114  A    between atoms: _322  and  _323
REMARK  115  A    between atoms: _322  and  _325
REMARK  116  A    between atoms: _325  and  _326
REMARK  117  A    between atoms: _329  and  _331
REMARK  118  A    between atoms: _331  and  _332
REMARK  119  A    between atoms: _334  and  _336
REMARK  120  A    between atoms: _336  and  _337
REMARK  121  A    between atoms: _336  and  _339
REMARK  122  A    between atoms: _339  and  _340
REMARK  123  A    between atoms: _342  and  _344
REMARK  124  A    between atoms: _344  and  _345
REMARK  125  A    between atoms: _344  and  _347
REMARK  126  A    between atoms: _347  and  _348
REMARK  127  A    between atoms: _351  and  _353
REMARK  128  A    between atoms: _353  and  _354
REMARK  129  A    between atoms: _353  and  _356
REMARK  130  A    between atoms: _356  and  _357
REMARK  131  A    between atoms: _360  and  _362
REMARK  132  A    between atoms: _362  and  _363
REMARK  133  A    between atoms: _362  and  _365
REMARK  134  A    between atoms: _365  and  _366
REMARK  135  A    between atoms: _370  and  _371
REMARK  136  A    between atoms: _377  and  _378
REMARK  137  A    between atoms: _383  and  _385
REMARK  138  A    between atoms: _385  and  _386
REMARK  139  A    between atoms: _385  and  _388
REMARK  140  A    between atoms: _388  and  _389
REMARK  141  A    between atoms: _392  and  _394
REMARK  142  A    between atoms: _394  and  _395
REMARK  143  A    between atoms: _394  and  _397
REMARK  144  A    between atoms: _397  and  _398
REMARK  145  A    between atoms: _401  and  _403
REMARK  146  A    between atoms: _403  and  _404
REMARK  147  A    between atoms: _403  and  _406
REMARK  148  A    between atoms: _409  and  _411
REMARK  149  A    between atoms: _411  and  _412
REMARK  150  A    between atoms: _411  and  _414
REMARK  151  A    between atoms: _414  and  _415
REMARK  152  A    between atoms: _425  and  _427
REMARK  153  A    between atoms: _427  and  _428
REMARK  154  A    between atoms: _427  and  _430
REMARK  155  A    between atoms: _430  and  _431
REMARK  156  A    between atoms: _436  and  _438
REMARK  157  A    between atoms: _438  and  _439
REMARK  158  A    between atoms: _438  and  _441
REMARK  159  A    between atoms: _441  and  _442
REMARK  160  A    between atoms: _442  and  _443
REMARK  161  A    between atoms: _443  and  _444
REMARK                            x       y       z     vdW  Elec       q    Type
REMARK                         _______ _______ _______ _____ _____    ______ ____
ROOT
ATOM      1  NE  ARG A   1       2.205  -3.797  21.267  0.00  0.00    +0.330 N 
ATOM      2  CZ  ARG A   1       2.371  -2.775  22.100  0.00  0.00    +0.000 C 
ATOM      3  NH2 ARG A   1       3.529  -2.628  22.732  0.00  0.00    +0.330 N 
ATOM      4 HH21 ARG A   1       3.667  -1.831  23.386  0.00  0.00    +0.000 HD
ATOM      5 HH22 ARG A   1       4.298  -3.310  22.574  0.00  0.00    +0.000 HD
ATOM      6  NH1 ARG A   1       1.395  -1.893  22.294  0.00  0.00    +0.330 N 
ATOM      7 HH11 ARG A   1       1.536  -1.097  22.948  0.00  0.00    +0.000 HD
ATOM      8 HH12 ARG A   1       0.491  -1.999  21.791  0.00  0.00    +0.000 HD
ATOM      9  HE  ARG A   1       3.000  -4.458  21.155  0.00  0.00    +0.000 HD
ENDROOT
BRANCH   1  10
ATOM     10  CD  ARG A   1       0.991  -4.066  20.494  0.00  0.00    +0.000 C 
BRANCH  10  11
ATOM     11  CG  ARG A   1       1.012  -5.514  20.005  0.00  0.00    +0.000 C 
BRANCH  11  12
ATOM     12  CB  ARG A   1      -0.005  -5.749  18.914  0.00  0.00    +0.000 C 
BRANCH  12  13
ATOM     13  CA  ARG A   1      -0.081  -7.198  18.422  0.00  0.00    +0.000 C 
BRANCH  13  14
ATOM     14  N   ARG A   1      -1.100  -7.326  17.387  0.00  0.00    +0.000 NA
ATOM     15  H   ARG A   1      -1.947  -6.727  17.451  0.00  0.00    +0.000 HD
ENDBRANCH  13  14
BRANCH  13  16
ATOM     16  C   ARG A   1      -0.495  -8.073  19.582  0.00  0.00    +0.000 C 
ATOM     17  O   ARG A   1      -1.664  -8.102  19.946  0.00  0.00    +0.000 OA
ENDBRANCH  13  16
ENDBRANCH  12  13
ENDBRANCH  11  12
ENDBRANCH  10  11
ENDBRANCH   1  10
TORSDOF 6
REMARK  Name = ../refined-set-2016/1g53/1g53_pocket.pdb
REMARK  161 active torsions:
REMARK  status: ('A' for Active; 'I' for Inactive)
REMARK    1  A    between atoms: _1  and  _3
REMARK    2  A    between atoms: _3  and  _4
REMARK    3  A    between atoms: _3  and  _6
REMARK    4  A    between atoms: _6  and  _7
REMARK    5  A    between atoms: _12  and  _14
REMARK    6  A    between atoms: _14  and  _15
REMARK    7  A    between atoms: _14  and  _17
REMARK    8  A    between atoms: _17  and  _18
REMARK    9  A    between atoms: _28  and  _30
REMARK   10  A    between atoms: _30  and  _31
REMARK   11  A    between atoms: _30  and  _33
REMARK   12  A    between atoms: _33  and  _34
REMARK   13  A    between atoms: _39  and  _40
REMARK   14  A    between atoms: _42  and  _44
REMARK   15  A    between atoms: _44  and  _45
REMARK   16  A    between atoms: _44  and  _47
REMARK   17  A    between atoms: _47  and  _48
REMARK   18  A    between atoms: _54  and  _56
REMARK   19  A    between atoms: _56  and  _57
REMARK   20  A    between atoms: _56  and  _59
REMARK   21  A    between atoms: _59  and  _60
REMARK   22  A    between atoms: _63  and  _64
REMARK   23  A    between atoms: _69  and  _71
REMARK   24  A    between atoms: _71  and  _72
REMARK   25  A    between atoms: _71  and  _74
REMARK   26  A    between atoms: _74  and  _75
REMARK   27  A    between atoms: _80  and  _82
REMARK   28  A    between atoms: _82  and  _83
REMARK   29  A    between atoms: _82  and  _85
REMARK   30  A    between atoms: _85  and  _86
REMARK   31  A    between atoms: _91  and  _93
REMARK   32  A    between atoms: _93  and  _94
REMARK   33  A    between atoms: _97  and  _99
REMARK   34  A    between atoms: _99  and  _100
REMARK   35  A    between atoms: _99  and  _102
REMARK   36  A    between atoms: _102  and  _103
REMARK   37  A    between atoms: _108  and  _110
REMARK   38  A    between atoms: _110  and  _111
REMARK   39  A    between atoms: _110  and  _113
REMARK   40  A    between atoms: _113  and  _114
REMARK   41  A    between atoms: _117  and  _119
REMARK   42  A    between atoms: _119  and  _120
REMARK   43  A    between atoms: _119  and  _122
REMARK   44  A    between atoms: _122  and  _123
REMARK   45  A    between atoms: _123  and  _124
REMARK   46  A    between atoms: _129  and  _131
REMARK   47  A    between atoms: _131  and  _132
REMARK   48  A    between atoms: _131  and  _134
REMARK   49  A    between atoms: _134  and  _135
REMARK   50  A    between atoms: _141  and  _143
REMARK   51  A    between atoms: _154  and  _157
REMARK   52  A    between atoms: _157  and  _158
REMARK   53  A    between atoms: _166  and  _167
REMARK   54  A    between atoms: _175  and  _177
REMARK   55  A    between atoms: _177  and  _178
REMARK   56  A    between atoms: _177  and  _180
REMARK   57  A    between atoms: _180  and  _181
REMARK   58  A    between atoms: _181  and  _182
REMARK   59  A    between atoms: _185  and  _187
REMARK   60  A    between atoms: _187  and  _188
REMARK   61  A    between atoms: _187  and  _190
REMARK   62  A    between atoms: _190  and  _191
REMARK   63  A    between atoms: _196  and  _198
REMARK   64  A    between atoms: _198  and  _199
REMARK   65  A    between atoms: _198  and  _201
REMARK   66  A    between atoms: _201  and  _202
REMARK   67  A    between atoms: _202  and  _203
REMARK   68  A    between atoms: _206  and  _208
REMARK   69  A    between atoms: _208  and  _209
REMARK   70  A    between atoms: _208  and  _211
REMARK   71  A    between atoms: _211  and  _212
REMARK   72  A    between atoms: _215  and  _217
REMARK   73  A    between atoms: _217  and  _218
REMARK   74  A    between atoms: _217  and  _220
REMARK   75  A    between atoms: _220  and  _221
REMARK   76  A    between atoms: _222  and  ZN_453
REMARK   77  A    between atoms: _226  and  _228
REMARK   78  A    between atoms: _228  and  _229
REMARK   79  A    between atoms: _228  and  _231
REMARK   80  A    between atoms: _231  and  _232
REMARK   81  A    between atoms: _235  and  _237
REMARK   82  A    between atoms: _237  and  _238
REMARK   83  A    between atoms: _237  and  _240
REMARK   84  A    between atoms: _243  and  _245
REMARK   85  A    between atoms: _245  and  _246
REMARK   86  A    between atoms: _245  and  _248
REMARK   87  A    between atoms: _248  and  _249
REMARK   88  A    between atoms: _254  and  _256
REMARK   89  A    between atoms: _256  and  _257
REMARK   90  A    between atoms: _256  and  _259
REMARK   91  A    between atoms: _259  and  _260
REMARK   92  A    between atoms: _266  and  _268
REMARK   93  A    between atoms: _268  and  _269
REMARK   94  A    between atoms: _271  and  _273
REMARK   95  A    between atoms: _273  and  _274
REMARK   96  A    between atoms: _277  and  _279
REMARK   97  A    between atoms: _279  and  _280
REMARK   98  A    between atoms: _279  and  _282
REMARK   99  A    between atoms: _285  and  _287
REMARK  100  A    between atoms: _287  and  _288
REMARK  101  A    between atoms: _287  and  _290
REMARK  102  A    between atoms: _290  and  _291
REMARK  103  A    between atoms: _291  and  _292
REMARK  104  A    between atoms: _297  and  _299
REMARK  105  A    between atoms: _299  and  _300
REMARK  106  A    between atoms: _299  and  _302
REMARK  107  A    between atoms: _302  and  _303
REMARK  108  A    between atoms: _306  and  _308
REMARK  109  A    between atoms: _308  and  _309
REMARK  110  A    between atoms: _312  and  _314
REMARK  111  A    between atoms: _314  and  _315
REMARK  112  A    between atoms: _314  and  _317
REMARK  113  A    between atoms: _320  and  _322
REMARK  114  A    between atoms: _322  and  _323
REMARK  115  A    between atoms: _322  and  _325
REMARK  116  A    between atoms: _325  and  _326
REMARK  117  A    between atoms: _329  and  _331
REMARK  118  A    between atoms: _331  and  _332
REMARK  119  A    between atoms: _334  and  _336
REMARK  120  A    between atoms: _336  and  _337
REMARK  121  A    between atoms: _336  and  _339
REMARK  122  A    between atoms: _339  and  _340
REMARK  123  A    between atoms: _342  and  _344
REMARK  124  A    between atoms: _344  and  _345
REMARK  125  A    between atoms: _344  and  _347
REMARK  126  A    between atoms: _347  and  _348
REMARK  127  A    between atoms: _351  and  _353
REMARK  128  A    between atoms: _353  and  _354
REMARK  129  A    between atoms: _353  and  _356
REMARK  130  A    between atoms: _356  and  _357
REMARK  131  A    between atoms: _360  and  _362
REMARK  132  A    between atoms: _362  and  _363
REMARK  133  A    between atoms: _362  and  _365
REMARK  134  A    between atoms: _365  and  _366
REMARK  135  A    between atoms: _370  and  _371
REMARK  136  A    between atoms: _377  and  _378
REMARK  137  A    between atoms: _383  and  _385
REMARK  138  A    between atoms: _385  and  _386
REMARK  139  A    between atoms: _385  and  _388
REMARK  140  A    between atoms: _388  and  _389
REMARK  141  A    between atoms: _392  and  _394
REMARK  142  A    between atoms: _394  and  _395
REMARK  143  A    between atoms: _394  and  _397
REMARK  144  A    between atoms: _397  and  _398
REMARK  145  A    between atoms: _401  and  _403
REMARK  146  A    between atoms: _403  and  _404
REMARK  147  A    between atoms: _403  and  _406
REMARK  148  A    between atoms: _409  and  _411
REMARK  149  A    between atoms: _411  and  _412
REMARK  150  A    between atoms: _411  and  _414
REMARK  151  A    between atoms: _414  and  _415
REMARK  152  A    between atoms: _425  and  _427
REMARK  153  A    between atoms: _427  and  _428
REMARK  154  A    between atoms: _427  and  _430
REMARK  155  A    between atoms: _430  and  _431
REMARK  156  A    between atoms: _436  and  _438
REMARK  157  A    between atoms: _438  and  _439
REMARK  158  A    between atoms: _438  and  _441
REMARK  159  A    between atoms: _441  and  _442
REMARK  160  A    between atoms: _442  and  _443
REMARK  161  A    between atoms: _443  and  _444
REMARK                            x       y       z     vdW  Elec       q    Type
REMARK                         _______ _______ _______ _____ _____    ______ ____
ROOT
ATOM      1  O   HOH     1      -1.356  -4.049  15.864  0.00  0.00    +0.000 OA
ENDROOT
TORSDOF 0
REMARK  Name = ../refined-set-2016/1g53/1g53_pocket.pdb
REMARK  161 active torsions:
REMARK  status: ('A' for Active; 'I' for Inactive)
REMARK    1  A    between atoms: _1  and  _3
REMARK    2  A    between atoms: _3  and  _4
REMARK    3  A    between atoms: _3  and  _6
REMARK    4  A    between atoms: _6  and  _7
REMARK    5  A    between atoms: _12  and  _14
REMARK    6  A    between atoms: _14  and  _15
REMARK    7  A    between atoms: _14  and  _17
REMARK    8  A    between atoms: _17  and  _18
REMARK    9  A    between atoms: _28  and  _30
REMARK   10  A    between atoms: _30  and  _31
REMARK   11  A    between atoms: _30  and  _33
REMARK   12  A    between atoms: _33  and  _34
REMARK   13  A    between atoms: _39  and  _40
REMARK   14  A    between atoms: _42  and  _44
REMARK   15  A    between atoms: _44  and  _45
REMARK   16  A    between atoms: _44  and  _47
REMARK   17  A    between atoms: _47  and  _48
REMARK   18  A    between atoms: _54  and  _56
REMARK   19  A    between atoms: _56  and  _57
REMARK   20  A    between atoms: _56  and  _59
REMARK   21  A    between atoms: _59  and  _60
REMARK   22  A    between atoms: _63  and  _64
REMARK   23  A    between atoms: _69  and  _71
REMARK   24  A    between atoms: _71  and  _72
REMARK   25  A    between atoms: _71  and  _74
REMARK   26  A    between atoms: _74  and  _75
REMARK   27  A    between atoms: _80  and  _82
REMARK   28  A    between atoms: _82  and  _83
REMARK   29  A    between atoms: _82  and  _85
REMARK   30  A    between atoms: _85  and  _86
REMARK   31  A    between atoms: _91  and  _93
REMARK   32  A    between atoms: _93  and  _94
REMARK   33  A    between atoms: _97  and  _99
REMARK   34  A    between atoms: _99  and  _100
REMARK   35  A    between atoms: _99  and  _102
REMARK   36  A    between atoms: _102  and  _103
REMARK   37  A    between atoms: _108  and  _110
REMARK   38  A    between atoms: _110  and  _111
REMARK   39  A    between atoms: _110  and  _113
REMARK   40  A    between atoms: _113  and  _114
REMARK   41  A    between atoms: _117  and  _119
REMARK   42  A    between atoms: _119  and  _120
REMARK   43  A    between atoms: _119  and  _122
REMARK   44  A    between atoms: _122  and  _123
REMARK   45  A    between atoms: _123  and  _124
REMARK   46  A    between atoms: _129  and  _131
REMARK   47  A    between atoms: _131  and  _132
REMARK   48  A    between atoms: _131  and  _134
REMARK   49  A    between atoms: _134  and  _135
REMARK   50  A    between atoms: _141  and  _143
REMARK   51  A    between atoms: _154  and  _157
REMARK   52  A    between atoms: _157  and  _158
REMARK   53  A    between atoms: _166  and  _167
REMARK   54  A    between atoms: _175  and  _177
REMARK   55  A    between atoms: _177  and  _178
REMARK   56  A    between atoms: _177  and  _180
REMARK   57  A    between atoms: _180  and  _181
REMARK   58  A    between atoms: _181  and  _182
REMARK   59  A    between atoms: _185  and  _187
REMARK   60  A    between atoms: _187  and  _188
REMARK   61  A    between atoms: _187  and  _190
REMARK   62  A    between atoms: _190  and  _191
REMARK   63  A    between atoms: _196  and  _198
REMARK   64  A    between atoms: _198  and  _199
REMARK   65  A    between atoms: _198  and  _201
REMARK   66  A    between atoms: _201  and  _202
REMARK   67  A    between atoms: _202  and  _203
REMARK   68  A    between atoms: _206  and  _208
REMARK   69  A    between atoms: _208  and  _209
REMARK   70  A    between atoms: _208  and  _211
REMARK   71  A    between atoms: _211  and  _212
REMARK   72  A    between atoms: _215  and  _217
REMARK   73  A    between atoms: _217  and  _218
REMARK   74  A    between atoms: _217  and  _220
REMARK   75  A    between atoms: _220  and  _221
REMARK   76  A    between atoms: _222  and  ZN_453
REMARK   77  A    between atoms: _226  and  _228
REMARK   78  A    between atoms: _228  and  _229
REMARK   79  A    between atoms: _228  and  _231
REMARK   80  A    between atoms: _231  and  _232
REMARK   81  A    between atoms: _235  and  _237
REMARK   82  A    between atoms: _237  and  _238
REMARK   83  A    between atoms: _237  and  _240
REMARK   84  A    between atoms: _243  and  _245
REMARK   85  A    between atoms: _245  and  _246
REMARK   86  A    between atoms: _245  and  _248
REMARK   87  A    between atoms: _248  and  _249
REMARK   88  A    between atoms: _254  and  _256
REMARK   89  A    between atoms: _256  and  _257
REMARK   90  A    between atoms: _256  and  _259
REMARK   91  A    between atoms: _259  and  _260
REMARK   92  A    between atoms: _266  and  _268
REMARK   93  A    between atoms: _268  and  _269
REMARK   94  A    between atoms: _271  and  _273
REMARK   95  A    between atoms: _273  and  _274
REMARK   96  A    between atoms: _277  and  _279
REMARK   97  A    between atoms: _279  and  _280
REMARK   98  A    between atoms: _279  and  _282
REMARK   99  A    between atoms: _285  and  _287
REMARK  100  A    between atoms: _287  and  _288
REMARK  101  A    between atoms: _287  and  _290
REMARK  102  A    between atoms: _290  and  _291
REMARK  103  A    between atoms: _291  and  _292
REMARK  104  A    between atoms: _297  and  _299
REMARK  105  A    between atoms: _299  and  _300
REMARK  106  A    between atoms: _299  and  _302
REMARK  107  A    between atoms: _302  and  _303
REMARK  108  A    between atoms: _306  and  _308
REMARK  109  A    between atoms: _308  and  _309
REMARK  110  A    between atoms: _312  and  _314
REMARK  111  A    between atoms: _314  and  _315
REMARK  112  A    between atoms: _314  and  _317
REMARK  113  A    between atoms: _320  and  _322
REMARK  114  A    between atoms: _322  and  _323
REMARK  115  A    between atoms: _322  and  _325
REMARK  116  A    between atoms: _325  and  _326
REMARK  117  A    between atoms: _329  and  _331
REMARK  118  A    between atoms: _331  and  _332
REMARK  119  A    between atoms: _334  and  _336
REMARK  120  A    between atoms: _336  and  _337
REMARK  121  A    between atoms: _336  and  _339
REMARK  122  A    between atoms: _339  and  _340
REMARK  123  A    between atoms: _342  and  _344
REMARK  124  A    between atoms: _344  and  _345
REMARK  125  A    between atoms: _344  and  _347
REMARK  126  A    between atoms: _347  and  _348
REMARK  127  A    between atoms: _351  and  _353
REMARK  128  A    between atoms: _353  and  _354
REMARK  129  A    between atoms: _353  and  _356
REMARK  130  A    between atoms: _356  and  _357
REMARK  131  A    between atoms: _360  and  _362
REMARK  132  A    between atoms: _362  and  _363
REMARK  133  A    between atoms: _362  and  _365
REMARK  134  A    between atoms: _365  and  _366
REMARK  135  A    between atoms: _370  and  _371
REMARK  136  A    between atoms: _377  and  _378
REMARK  137  A    between atoms: _383  and  _385
REMARK  138  A    between atoms: _385  and  _386
REMARK  139  A    between atoms: _385  and  _388
REMARK  140  A    between atoms: _388  and  _389
REMARK  141  A    between atoms: _392  and  _394
REMARK  142  A    between atoms: _394  and  _395
REMARK  143  A    between atoms: _394  and  _397
REMARK  144  A    between atoms: _397  and  _398
REMARK  145  A    between atoms: _401  and  _403
REMARK  146  A    between atoms: _403  and  _404
REMARK  147  A    between atoms: _403  and  _406
REMARK  148  A    between atoms: _409  and  _411
REMARK  149  A    between atoms: _411  and  _412
REMARK  150  A    between atoms: _411  and  _414
REMARK  151  A    between atoms: _414  and  _415
REMARK  152  A    between atoms: _425  and  _427
REMARK  153  A    between atoms: _427  and  _428
REMARK  154  A    between atoms: _427  and  _430
REMARK  155  A    between atoms: _430  and  _431
REMARK  156  A    between atoms: _436  and  _438
REMARK  157  A    between atoms: _438  and  _439
REMARK  158  A    between atoms: _438  and  _441
REMARK  159  A    between atoms: _441  and  _442
REMARK  160  A    between atoms: _442  and  _443
REMARK  161  A    between atoms: _443  and  _444
REMARK                            x       y       z     vdW  Elec       q    Type
REMARK                         _______ _______ _______ _____ _____    ______ ____
ROOT
ATOM      1  O   HOH     1      -3.345   8.011  20.606  0.00  0.00    +0.000 OA
ENDROOT
TORSDOF 0
REMARK  Name = ../refined-set-2016/1g53/1g53_pocket.pdb
REMARK  161 active torsions:
REMARK  status: ('A' for Active; 'I' for Inactive)
REMARK    1  A    between atoms: _1  and  _3
REMARK    2  A    between atoms: _3  and  _4
REMARK    3  A    between atoms: _3  and  _6
REMARK    4  A    between atoms: _6  and  _7
REMARK    5  A    between atoms: _12  and  _14
REMARK    6  A    between atoms: _14  and  _15
REMARK    7  A    between atoms: _14  and  _17
REMARK    8  A    between atoms: _17  and  _18
REMARK    9  A    between atoms: _28  and  _30
REMARK   10  A    between atoms: _30  and  _31
REMARK   11  A    between atoms: _30  and  _33
REMARK   12  A    between atoms: _33  and  _34
REMARK   13  A    between atoms: _39  and  _40
REMARK   14  A    between atoms: _42  and  _44
REMARK   15  A    between atoms: _44  and  _45
REMARK   16  A    between atoms: _44  and  _47
REMARK   17  A    between atoms: _47  and  _48
REMARK   18  A    between atoms: _54  and  _56
REMARK   19  A    between atoms: _56  and  _57
REMARK   20  A    between atoms: _56  and  _59
REMARK   21  A    between atoms: _59  and  _60
REMARK   22  A    between atoms: _63  and  _64
REMARK   23  A    between atoms: _69  and  _71
REMARK   24  A    between atoms: _71  and  _72
REMARK   25  A    between atoms: _71  and  _74
REMARK   26  A    between atoms: _74  and  _75
REMARK   27  A    between atoms: _80  and  _82
REMARK   28  A    between atoms: _82  and  _83
REMARK   29  A    between atoms: _82  and  _85
REMARK   30  A    between atoms: _85  and  _86
REMARK   31  A    between atoms: _91  and  _93
REMARK   32  A    between atoms: _93  and  _94
REMARK   33  A    between atoms: _97  and  _99
REMARK   34  A    between atoms: _99  and  _100
REMARK   35  A    between atoms: _99  and  _102
REMARK   36  A    between atoms: _102  and  _103
REMARK   37  A    between atoms: _108  and  _110
REMARK   38  A    between atoms: _110  and  _111
REMARK   39  A    between atoms: _110  and  _113
REMARK   40  A    between atoms: _113  and  _114
REMARK   41  A    between atoms: _117  and  _119
REMARK   42  A    between atoms: _119  and  _120
REMARK   43  A    between atoms: _119  and  _122
REMARK   44  A    between atoms: _122  and  _123
REMARK   45  A    between atoms: _123  and  _124
REMARK   46  A    between atoms: _129  and  _131
REMARK   47  A    between atoms: _131  and  _132
REMARK   48  A    between atoms: _131  and  _134
REMARK   49  A    between atoms: _134  and  _135
REMARK   50  A    between atoms: _141  and  _143
REMARK   51  A    between atoms: _154  and  _157
REMARK   52  A    between atoms: _157  and  _158
REMARK   53  A    between atoms: _166  and  _167
REMARK   54  A    between atoms: _175  and  _177
REMARK   55  A    between atoms: _177  and  _178
REMARK   56  A    between atoms: _177  and  _180
REMARK   57  A    between atoms: _180  and  _181
REMARK   58  A    between atoms: _181  and  _182
REMARK   59  A    between atoms: _185  and  _187
REMARK   60  A    between atoms: _187  and  _188
REMARK   61  A    between atoms: _187  and  _190
REMARK   62  A    between atoms: _190  and  _191
REMARK   63  A    between atoms: _196  and  _198
REMARK   64  A    between atoms: _198  and  _199
REMARK   65  A    between atoms: _198  and  _201
REMARK   66  A    between atoms: _201  and  _202
REMARK   67  A    between atoms: _202  and  _203
REMARK   68  A    between atoms: _206  and  _208
REMARK   69  A    between atoms: _208  and  _209
REMARK   70  A    between atoms: _208  and  _211
REMARK   71  A    between atoms: _211  and  _212
REMARK   72  A    between atoms: _215  and  _217
REMARK   73  A    between atoms: _217  and  _218
REMARK   74  A    between atoms: _217  and  _220
REMARK   75  A    between atoms: _220  and  _221
REMARK   76  A    between atoms: _222  and  ZN_453
REMARK   77  A    between atoms: _226  and  _228
REMARK   78  A    between atoms: _228  and  _229
REMARK   79  A    between atoms: _228  and  _231
REMARK   80  A    between atoms: _231  and  _232
REMARK   81  A    between atoms: _235  and  _237
REMARK   82  A    between atoms: _237  and  _238
REMARK   83  A    between atoms: _237  and  _240
REMARK   84  A    between atoms: _243  and  _245
REMARK   85  A    between atoms: _245  and  _246
REMARK   86  A    between atoms: _245  and  _248
REMARK   87  A    between atoms: _248  and  _249
REMARK   88  A    between atoms: _254  and  _256
REMARK   89  A    between atoms: _256  and  _257
REMARK   90  A    between atoms: _256  and  _259
REMARK   91  A    between atoms: _259  and  _260
REMARK   92  A    between atoms: _266  and  _268
REMARK   93  A    between atoms: _268  and  _269
REMARK   94  A    between atoms: _271  and  _273
REMARK   95  A    between atoms: _273  and  _274
REMARK   96  A    between atoms: _277  and  _279
REMARK   97  A    between atoms: _279  and  _280
REMARK   98  A    between atoms: _279  and  _282
REMARK   99  A    between atoms: _285  and  _287
REMARK  100  A    between atoms: _287  and  _288
REMARK  101  A    between atoms: _287  and  _290
REMARK  102  A    between atoms: _290  and  _291
REMARK  103  A    between atoms: _291  and  _292
REMARK  104  A    between atoms: _297  and  _299
REMARK  105  A    between atoms: _299  and  _300
REMARK  106  A    between atoms: _299  and  _302
REMARK  107  A    between atoms: _302  and  _303
REMARK  108  A    between atoms: _306  and  _308
REMARK  109  A    between atoms: _308  and  _309
REMARK  110  A    between atoms: _312  and  _314
REMARK  111  A    between atoms: _314  and  _315
REMARK  112  A    between atoms: _314  and  _317
REMARK  113  A    between atoms: _320  and  _322
REMARK  114  A    between atoms: _322  and  _323
REMARK  115  A    between atoms: _322  and  _325
REMARK  116  A    between atoms: _325  and  _326
REMARK  117  A    between atoms: _329  and  _331
REMARK  118  A    between atoms: _331  and  _332
REMARK  119  A    between atoms: _334  and  _336
REMARK  120  A    between atoms: _336  and  _337
REMARK  121  A    between atoms: _336  and  _339
REMARK  122  A    between atoms: _339  and  _340
REMARK  123  A    between atoms: _342  and  _344
REMARK  124  A    between atoms: _344  and  _345
REMARK  125  A    between atoms: _344  and  _347
REMARK  126  A    between atoms: _347  and  _348
REMARK  127  A    between atoms: _351  and  _353
REMARK  128  A    between atoms: _353  and  _354
REMARK  129  A    between atoms: _353  and  _356
REMARK  130  A    between atoms: _356  and  _357
REMARK  131  A    between atoms: _360  and  _362
REMARK  132  A    between atoms: _362  and  _363
REMARK  133  A    between atoms: _362  and  _365
REMARK  134  A    between atoms: _365  and  _366
REMARK  135  A    between atoms: _370  and  _371
REMARK  136  A    between atoms: _377  and  _378
REMARK  137  A    between atoms: _383  and  _385
REMARK  138  A    between atoms: _385  and  _386
REMARK  139  A    between atoms: _385  and  _388
REMARK  140  A    between atoms: _388  and  _389
REMARK  141  A    between atoms: _392  and  _394
REMARK  142  A    between atoms: _394  and  _395
REMARK  143  A    between atoms: _394  and  _397
REMARK  144  A    between atoms: _397  and  _398
REMARK  145  A    between atoms: _401  and  _403
REMARK  146  A    between atoms: _403  and  _404
REMARK  147  A    between atoms: _403  and  _406
REMARK  148  A    between atoms: _409  and  _411
REMARK  149  A    between atoms: _411  and  _412
REMARK  150  A    between atoms: _411  and  _414
REMARK  151  A    between atoms: _414  and  _415
REMARK  152  A    between atoms: _425  and  _427
REMARK  153  A    between atoms: _427  and  _428
REMARK  154  A    between atoms: _427  and  _430
REMARK  155  A    between atoms: _430  and  _431
REMARK  156  A    between atoms: _436  and  _438
REMARK  157  A    between atoms: _438  and  _439
REMARK  158  A    between atoms: _438  and  _441
REMARK  159  A    between atoms: _441  and  _442
REMARK  160  A    between atoms: _442  and  _443
REMARK  161  A    between atoms: _443  and  _444
REMARK                            x       y       z     vdW  Elec       q    Type
REMARK                         _______ _______ _______ _____ _____    ______ ____
ROOT
ATOM      1  O   HOH     1      -2.654  -3.332  11.704  0.00  0.00    +0.000 OA
ENDROOT
TORSDOF 0
REMARK  Name = ../refined-set-2016/1g53/1g53_pocket.pdb
REMARK  161 active torsions:
REMARK  status: ('A' for Active; 'I' for Inactive)
REMARK    1  A    between atoms: _1  and  _3
REMARK    2  A    between atoms: _3  and  _4
REMARK    3  A    between atoms: _3  and  _6
REMARK    4  A    between atoms: _6  and  _7
REMARK    5  A    between atoms: _12  and  _14
REMARK    6  A    between atoms: _14  and  _15
REMARK    7  A    between atoms: _14  and  _17
REMARK    8  A    between atoms: _17  and  _18
REMARK    9  A    between atoms: _28  and  _30
REMARK   10  A    between atoms: _30  and  _31
REMARK   11  A    between atoms: _30  and  _33
REMARK   12  A    between atoms: _33  and  _34
REMARK   13  A    between atoms: _39  and  _40
REMARK   14  A    between atoms: _42  and  _44
REMARK   15  A    between atoms: _44  and  _45
REMARK   16  A    between atoms: _44  and  _47
REMARK   17  A    between atoms: _47  and  _48
REMARK   18  A    between atoms: _54  and  _56
REMARK   19  A    between atoms: _56  and  _57
REMARK   20  A    between atoms: _56  and  _59
REMARK   21  A    between atoms: _59  and  _60
REMARK   22  A    between atoms: _63  and  _64
REMARK   23  A    between atoms: _69  and  _71
REMARK   24  A    between atoms: _71  and  _72
REMARK   25  A    between atoms: _71  and  _74
REMARK   26  A    between atoms: _74  and  _75
REMARK   27  A    between atoms: _80  and  _82
REMARK   28  A    between atoms: _82  and  _83
REMARK   29  A    between atoms: _82  and  _85
REMARK   30  A    between atoms: _85  and  _86
REMARK   31  A    between atoms: _91  and  _93
REMARK   32  A    between atoms: _93  and  _94
REMARK   33  A    between atoms: _97  and  _99
REMARK   34  A    between atoms: _99  and  _100
REMARK   35  A    between atoms: _99  and  _102
REMARK   36  A    between atoms: _102  and  _103
REMARK   37  A    between atoms: _108  and  _110
REMARK   38  A    between atoms: _110  and  _111
REMARK   39  A    between atoms: _110  and  _113
REMARK   40  A    between atoms: _113  and  _114
REMARK   41  A    between atoms: _117  and  _119
REMARK   42  A    between atoms: _119  and  _120
REMARK   43  A    between atoms: _119  and  _122
REMARK   44  A    between atoms: _122  and  _123
REMARK   45  A    between atoms: _123  and  _124
REMARK   46  A    between atoms: _129  and  _131
REMARK   47  A    between atoms: _131  and  _132
REMARK   48  A    between atoms: _131  and  _134
REMARK   49  A    between atoms: _134  and  _135
REMARK   50  A    between atoms: _141  and  _143
REMARK   51  A    between atoms: _154  and  _157
REMARK   52  A    between atoms: _157  and  _158
REMARK   53  A    between atoms: _166  and  _167
REMARK   54  A    between atoms: _175  and  _177
REMARK   55  A    between atoms: _177  and  _178
REMARK   56  A    between atoms: _177  and  _180
REMARK   57  A    between atoms: _180  and  _181
REMARK   58  A    between atoms: _181  and  _182
REMARK   59  A    between atoms: _185  and  _187
REMARK   60  A    between atoms: _187  and  _188
REMARK   61  A    between atoms: _187  and  _190
REMARK   62  A    between atoms: _190  and  _191
REMARK   63  A    between atoms: _196  and  _198
REMARK   64  A    between atoms: _198  and  _199
REMARK   65  A    between atoms: _198  and  _201
REMARK   66  A    between atoms: _201  and  _202
REMARK   67  A    between atoms: _202  and  _203
REMARK   68  A    between atoms: _206  and  _208
REMARK   69  A    between atoms: _208  and  _209
REMARK   70  A    between atoms: _208  and  _211
REMARK   71  A    between atoms: _211  and  _212
REMARK   72  A    between atoms: _215  and  _217
REMARK   73  A    between atoms: _217  and  _218
REMARK   74  A    between atoms: _217  and  _220
REMARK   75  A    between atoms: _220  and  _221
REMARK   76  A    between atoms: _222  and  ZN_453
REMARK   77  A    between atoms: _226  and  _228
REMARK   78  A    between atoms: _228  and  _229
REMARK   79  A    between atoms: _228  and  _231
REMARK   80  A    between atoms: _231  and  _232
REMARK   81  A    between atoms: _235  and  _237
REMARK   82  A    between atoms: _237  and  _238
REMARK   83  A    between atoms: _237  and  _240
REMARK   84  A    between atoms: _243  and  _245
REMARK   85  A    between atoms: _245  and  _246
REMARK   86  A    between atoms: _245  and  _248
REMARK   87  A    between atoms: _248  and  _249
REMARK   88  A    between atoms: _254  and  _256
REMARK   89  A    between atoms: _256  and  _257
REMARK   90  A    between atoms: _256  and  _259
REMARK   91  A    between atoms: _259  and  _260
REMARK   92  A    between atoms: _266  and  _268
REMARK   93  A    between atoms: _268  and  _269
REMARK   94  A    between atoms: _271  and  _273
REMARK   95  A    between atoms: _273  and  _274
REMARK   96  A    between atoms: _277  and  _279
REMARK   97  A    between atoms: _279  and  _280
REMARK   98  A    between atoms: _279  and  _282
REMARK   99  A    between atoms: _285  and  _287
REMARK  100  A    between atoms: _287  and  _288
REMARK  101  A    between atoms: _287  and  _290
REMARK  102  A    between atoms: _290  and  _291
REMARK  103  A    between atoms: _291  and  _292
REMARK  104  A    between atoms: _297  and  _299
REMARK  105  A    between atoms: _299  and  _300
REMARK  106  A    between atoms: _299  and  _302
REMARK  107  A    between atoms: _302  and  _303
REMARK  108  A    between atoms: _306  and  _308
REMARK  109  A    between atoms: _308  and  _309
REMARK  110  A    between atoms: _312  and  _314
REMARK  111  A    between atoms: _314  and  _315
REMARK  112  A    between atoms: _314  and  _317
REMARK  113  A    between atoms: _320  and  _322
REMARK  114  A    between atoms: _322  and  _323
REMARK  115  A    between atoms: _322  and  _325
REMARK  116  A    between atoms: _325  and  _326
REMARK  117  A    between atoms: _329  and  _331
REMARK  118  A    between atoms: _331  and  _332
REMARK  119  A    between atoms: _334  and  _336
REMARK  120  A    between atoms: _336  and  _337
REMARK  121  A    between atoms: _336  and  _339
REMARK  122  A    between atoms: _339  and  _340
REMARK  123  A    between atoms: _342  and  _344
REMARK  124  A    between atoms: _344  and  _345
REMARK  125  A    between atoms: _344  and  _347
REMARK  126  A    between atoms: _347  and  _348
REMARK  127  A    between atoms: _351  and  _353
REMARK  128  A    between atoms: _353  and  _354
REMARK  129  A    between atoms: _353  and  _356
REMARK  130  A    between atoms: _356  and  _357
REMARK  131  A    between atoms: _360  and  _362
REMARK  132  A    between atoms: _362  and  _363
REMARK  133  A    between atoms: _362  and  _365
REMARK  134  A    between atoms: _365  and  _366
REMARK  135  A    between atoms: _370  and  _371
REMARK  136  A    between atoms: _377  and  _378
REMARK  137  A    between atoms: _383  and  _385
REMARK  138  A    between atoms: _385  and  _386
REMARK  139  A    between atoms: _385  and  _388
REMARK  140  A    between atoms: _388  and  _389
REMARK  141  A    between atoms: _392  and  _394
REMARK  142  A    between atoms: _394  and  _395
REMARK  143  A    between atoms: _394  and  _397
REMARK  144  A    between atoms: _397  and  _398
REMARK  145  A    between atoms: _401  and  _403
REMARK  146  A    between atoms: _403  and  _404
REMARK  147  A    between atoms: _403  and  _406
REMARK  148  A    between atoms: _409  and  _411
REMARK  149  A    between atoms: _411  and  _412
REMARK  150  A    between atoms: _411  and  _414
REMARK  151  A    between atoms: _414  and  _415
REMARK  152  A    between atoms: _425  and  _427
REMARK  153  A    between atoms: _427  and  _428
REMARK  154  A    between atoms: _427  and  _430
REMARK  155  A    between atoms: _430  and  _431
REMARK  156  A    between atoms: _436  and  _438
REMARK  157  A    between atoms: _438  and  _439
REMARK  158  A    between atoms: _438  and  _441
REMARK  159  A    between atoms: _441  and  _442
REMARK  160  A    between atoms: _442  and  _443
REMARK  161  A    between atoms: _443  and  _444
REMARK                            x       y       z     vdW  Elec       q    Type
REMARK                         _______ _______ _______ _____ _____    ______ ____
ROOT
ATOM      1  O   HOH     1       5.425   6.970  20.258  0.00  0.00    +0.000 OA
ENDROOT
TORSDOF 0
REMARK  Name = ../refined-set-2016/1g53/1g53_pocket.pdb
REMARK  161 active torsions:
REMARK  status: ('A' for Active; 'I' for Inactive)
REMARK    1  A    between atoms: _1  and  _3
REMARK    2  A    between atoms: _3  and  _4
REMARK    3  A    between atoms: _3  and  _6
REMARK    4  A    between atoms: _6  and  _7
REMARK    5  A    between atoms: _12  and  _14
REMARK    6  A    between atoms: _14  and  _15
REMARK    7  A    between atoms: _14  and  _17
REMARK    8  A    between atoms: _17  and  _18
REMARK    9  A    between atoms: _28  and  _30
REMARK   10  A    between atoms: _30  and  _31
REMARK   11  A    between atoms: _30  and  _33
REMARK   12  A    between atoms: _33  and  _34
REMARK   13  A    between atoms: _39  and  _40
REMARK   14  A    between atoms: _42  and  _44
REMARK   15  A    between atoms: _44  and  _45
REMARK   16  A    between atoms: _44  and  _47
REMARK   17  A    between atoms: _47  and  _48
REMARK   18  A    between atoms: _54  and  _56
REMARK   19  A    between atoms: _56  and  _57
REMARK   20  A    between atoms: _56  and  _59
REMARK   21  A    between atoms: _59  and  _60
REMARK   22  A    between atoms: _63  and  _64
REMARK   23  A    between atoms: _69  and  _71
REMARK   24  A    between atoms: _71  and  _72
REMARK   25  A    between atoms: _71  and  _74
REMARK   26  A    between atoms: _74  and  _75
REMARK   27  A    between atoms: _80  and  _82
REMARK   28  A    between atoms: _82  and  _83
REMARK   29  A    between atoms: _82  and  _85
REMARK   30  A    between atoms: _85  and  _86
REMARK   31  A    between atoms: _91  and  _93
REMARK   32  A    between atoms: _93  and  _94
REMARK   33  A    between atoms: _97  and  _99
REMARK   34  A    between atoms: _99  and  _100
REMARK   35  A    between atoms: _99  and  _102
REMARK   36  A    between atoms: _102  and  _103
REMARK   37  A    between atoms: _108  and  _110
REMARK   38  A    between atoms: _110  and  _111
REMARK   39  A    between atoms: _110  and  _113
REMARK   40  A    between atoms: _113  and  _114
REMARK   41  A    between atoms: _117  and  _119
REMARK   42  A    between atoms: _119  and  _120
REMARK   43  A    between atoms: _119  and  _122
REMARK   44  A    between atoms: _122  and  _123
REMARK   45  A    between atoms: _123  and  _124
REMARK   46  A    between atoms: _129  and  _131
REMARK   47  A    between atoms: _131  and  _132
REMARK   48  A    between atoms: _131  and  _134
REMARK   49  A    between atoms: _134  and  _135
REMARK   50  A    between atoms: _141  and  _143
REMARK   51  A    between atoms: _154  and  _157
REMARK   52  A    between atoms: _157  and  _158
REMARK   53  A    between atoms: _166  and  _167
REMARK   54  A    between atoms: _175  and  _177
REMARK   55  A    between atoms: _177  and  _178
REMARK   56  A    between atoms: _177  and  _180
REMARK   57  A    between atoms: _180  and  _181
REMARK   58  A    between atoms: _181  and  _182
REMARK   59  A    between atoms: _185  and  _187
REMARK   60  A    between atoms: _187  and  _188
REMARK   61  A    between atoms: _187  and  _190
REMARK   62  A    between atoms: _190  and  _191
REMARK   63  A    between atoms: _196  and  _198
REMARK   64  A    between atoms: _198  and  _199
REMARK   65  A    between atoms: _198  and  _201
REMARK   66  A    between atoms: _201  and  _202
REMARK   67  A    between atoms: _202  and  _203
REMARK   68  A    between atoms: _206  and  _208
REMARK   69  A    between atoms: _208  and  _209
REMARK   70  A    between atoms: _208  and  _211
REMARK   71  A    between atoms: _211  and  _212
REMARK   72  A    between atoms: _215  and  _217
REMARK   73  A    between atoms: _217  and  _218
REMARK   74  A    between atoms: _217  and  _220
REMARK   75  A    between atoms: _220  and  _221
REMARK   76  A    between atoms: _222  and  ZN_453
REMARK   77  A    between atoms: _226  and  _228
REMARK   78  A    between atoms: _228  and  _229
REMARK   79  A    between atoms: _228  and  _231
REMARK   80  A    between atoms: _231  and  _232
REMARK   81  A    between atoms: _235  and  _237
REMARK   82  A    between atoms: _237  and  _238
REMARK   83  A    between atoms: _237  and  _240
REMARK   84  A    between atoms: _243  and  _245
REMARK   85  A    between atoms: _245  and  _246
REMARK   86  A    between atoms: _245  and  _248
REMARK   87  A    between atoms: _248  and  _249
REMARK   88  A    between atoms: _254  and  _256
REMARK   89  A    between atoms: _256  and  _257
REMARK   90  A    between atoms: _256  and  _259
REMARK   91  A    between atoms: _259  and  _260
REMARK   92  A    between atoms: _266  and  _268
REMARK   93  A    between atoms: _268  and  _269
REMARK   94  A    between atoms: _271  and  _273
REMARK   95  A    between atoms: _273  and  _274
REMARK   96  A    between atoms: _277  and  _279
REMARK   97  A    between atoms: _279  and  _280
REMARK   98  A    between atoms: _279  and  _282
REMARK   99  A    between atoms: _285  and  _287
REMARK  100  A    between atoms: _287  and  _288
REMARK  101  A    between atoms: _287  and  _290
REMARK  102  A    between atoms: _290  and  _291
REMARK  103  A    between atoms: _291  and  _292
REMARK  104  A    between atoms: _297  and  _299
REMARK  105  A    between atoms: _299  and  _300
REMARK  106  A    between atoms: _299  and  _302
REMARK  107  A    between atoms: _302  and  _303
REMARK  108  A    between atoms: _306  and  _308
REMARK  109  A    between atoms: _308  and  _309
REMARK  110  A    between atoms: _312  and  _314
REMARK  111  A    between atoms: _314  and  _315
REMARK  112  A    between atoms: _314  and  _317
REMARK  113  A    between atoms: _320  and  _322
REMARK  114  A    between atoms: _322  and  _323
REMARK  115  A    between atoms: _322  and  _325
REMARK  116  A    between atoms: _325  and  _326
REMARK  117  A    between atoms: _329  and  _331
REMARK  118  A    between atoms: _331  and  _332
REMARK  119  A    between atoms: _334  and  _336
REMARK  120  A    between atoms: _336  and  _337
REMARK  121  A    between atoms: _336  and  _339
REMARK  122  A    between atoms: _339  and  _340
REMARK  123  A    between atoms: _342  and  _344
REMARK  124  A    between atoms: _344  and  _345
REMARK  125  A    between atoms: _344  and  _347
REMARK  126  A    between atoms: _347  and  _348
REMARK  127  A    between atoms: _351  and  _353
REMARK  128  A    between atoms: _353  and  _354
REMARK  129  A    between atoms: _353  and  _356
REMARK  130  A    between atoms: _356  and  _357
REMARK  131  A    between atoms: _360  and  _362
REMARK  132  A    between atoms: _362  and  _363
REMARK  133  A    between atoms: _362  and  _365
REMARK  134  A    between atoms: _365  and  _366
REMARK  135  A    between atoms: _370  and  _371
REMARK  136  A    between atoms: _377  and  _378
REMARK  137  A    between atoms: _383  and  _385
REMARK  138  A    between atoms: _385  and  _386
REMARK  139  A    between atoms: _385  and  _388
REMARK  140  A    between atoms: _388  and  _389
REMARK  141  A    between atoms: _392  and  _394
REMARK  142  A    between atoms: _394  and  _395
REMARK  143  A    between atoms: _394  and  _397
REMARK  144  A    between atoms: _397  and  _398
REMARK  145  A    between atoms: _401  and  _403
REMARK  146  A    between atoms: _403  and  _404
REMARK  147  A    between atoms: _403  and  _406
REMARK  148  A    between atoms: _409  and  _411
REMARK  149  A    between atoms: _411  and  _412
REMARK  150  A    between atoms: _411  and  _414
REMARK  151  A    between atoms: _414  and  _415
REMARK  152  A    between atoms: _425  and  _427
REMARK  153  A    between atoms: _427  and  _428
REMARK  154  A    between atoms: _427  and  _430
REMARK  155  A    between atoms: _430  and  _431
REMARK  156  A    between atoms: _436  and  _438
REMARK  157  A    between atoms: _438  and  _439
REMARK  158  A    between atoms: _438  and  _441
REMARK  159  A    between atoms: _441  and  _442
REMARK  160  A    between atoms: _442  and  _443
REMARK  161  A    between atoms: _443  and  _444
REMARK                            x       y       z     vdW  Elec       q    Type
REMARK                         _______ _______ _______ _____ _____    ______ ____
ROOT
ATOM      1  O   HOH     1      -7.090   6.258   6.953  0.00  0.00    +0.000 OA
ENDROOT
TORSDOF 0
REMARK  Name = ../refined-set-2016/1g53/1g53_pocket.pdb
REMARK  161 active torsions:
REMARK  status: ('A' for Active; 'I' for Inactive)
REMARK    1  A    between atoms: _1  and  _3
REMARK    2  A    between atoms: _3  and  _4
REMARK    3  A    between atoms: _3  and  _6
REMARK    4  A    between atoms: _6  and  _7
REMARK    5  A    between atoms: _12  and  _14
REMARK    6  A    between atoms: _14  and  _15
REMARK    7  A    between atoms: _14  and  _17
REMARK    8  A    between atoms: _17  and  _18
REMARK    9  A    between atoms: _28  and  _30
REMARK   10  A    between atoms: _30  and  _31
REMARK   11  A    between atoms: _30  and  _33
REMARK   12  A    between atoms: _33  and  _34
REMARK   13  A    between atoms: _39  and  _40
REMARK   14  A    between atoms: _42  and  _44
REMARK   15  A    between atoms: _44  and  _45
REMARK   16  A    between atoms: _44  and  _47
REMARK   17  A    between atoms: _47  and  _48
REMARK   18  A    between atoms: _54  and  _56
REMARK   19  A    between atoms: _56  and  _57
REMARK   20  A    between atoms: _56  and  _59
REMARK   21  A    between atoms: _59  and  _60
REMARK   22  A    between atoms: _63  and  _64
REMARK   23  A    between atoms: _69  and  _71
REMARK   24  A    between atoms: _71  and  _72
REMARK   25  A    between atoms: _71  and  _74
REMARK   26  A    between atoms: _74  and  _75
REMARK   27  A    between atoms: _80  and  _82
REMARK   28  A    between atoms: _82  and  _83
REMARK   29  A    between atoms: _82  and  _85
REMARK   30  A    between atoms: _85  and  _86
REMARK   31  A    between atoms: _91  and  _93
REMARK   32  A    between atoms: _93  and  _94
REMARK   33  A    between atoms: _97  and  _99
REMARK   34  A    between atoms: _99  and  _100
REMARK   35  A    between atoms: _99  and  _102
REMARK   36  A    between atoms: _102  and  _103
REMARK   37  A    between atoms: _108  and  _110
REMARK   38  A    between atoms: _110  and  _111
REMARK   39  A    between atoms: _110  and  _113
REMARK   40  A    between atoms: _113  and  _114
REMARK   41  A    between atoms: _117  and  _119
REMARK   42  A    between atoms: _119  and  _120
REMARK   43  A    between atoms: _119  and  _122
REMARK   44  A    between atoms: _122  and  _123
REMARK   45  A    between atoms: _123  and  _124
REMARK   46  A    between atoms: _129  and  _131
REMARK   47  A    between atoms: _131  and  _132
REMARK   48  A    between atoms: _131  and  _134
REMARK   49  A    between atoms: _134  and  _135
REMARK   50  A    between atoms: _141  and  _143
REMARK   51  A    between atoms: _154  and  _157
REMARK   52  A    between atoms: _157  and  _158
REMARK   53  A    between atoms: _166  and  _167
REMARK   54  A    between atoms: _175  and  _177
REMARK   55  A    between atoms: _177  and  _178
REMARK   56  A    between atoms: _177  and  _180
REMARK   57  A    between atoms: _180  and  _181
REMARK   58  A    between atoms: _181  and  _182
REMARK   59  A    between atoms: _185  and  _187
REMARK   60  A    between atoms: _187  and  _188
REMARK   61  A    between atoms: _187  and  _190
REMARK   62  A    between atoms: _190  and  _191
REMARK   63  A    between atoms: _196  and  _198
REMARK   64  A    between atoms: _198  and  _199
REMARK   65  A    between atoms: _198  and  _201
REMARK   66  A    between atoms: _201  and  _202
REMARK   67  A    between atoms: _202  and  _203
REMARK   68  A    between atoms: _206  and  _208
REMARK   69  A    between atoms: _208  and  _209
REMARK   70  A    between atoms: _208  and  _211
REMARK   71  A    between atoms: _211  and  _212
REMARK   72  A    between atoms: _215  and  _217
REMARK   73  A    between atoms: _217  and  _218
REMARK   74  A    between atoms: _217  and  _220
REMARK   75  A    between atoms: _220  and  _221
REMARK   76  A    between atoms: _222  and  ZN_453
REMARK   77  A    between atoms: _226  and  _228
REMARK   78  A    between atoms: _228  and  _229
REMARK   79  A    between atoms: _228  and  _231
REMARK   80  A    between atoms: _231  and  _232
REMARK   81  A    between atoms: _235  and  _237
REMARK   82  A    between atoms: _237  and  _238
REMARK   83  A    between atoms: _237  and  _240
REMARK   84  A    between atoms: _243  and  _245
REMARK   85  A    between atoms: _245  and  _246
REMARK   86  A    between atoms: _245  and  _248
REMARK   87  A    between atoms: _248  and  _249
REMARK   88  A    between atoms: _254  and  _256
REMARK   89  A    between atoms: _256  and  _257
REMARK   90  A    between atoms: _256  and  _259
REMARK   91  A    between atoms: _259  and  _260
REMARK   92  A    between atoms: _266  and  _268
REMARK   93  A    between atoms: _268  and  _269
REMARK   94  A    between atoms: _271  and  _273
REMARK   95  A    between atoms: _273  and  _274
REMARK   96  A    between atoms: _277  and  _279
REMARK   97  A    between atoms: _279  and  _280
REMARK   98  A    between atoms: _279  and  _282
REMARK   99  A    between atoms: _285  and  _287
REMARK  100  A    between atoms: _287  and  _288
REMARK  101  A    between atoms: _287  and  _290
REMARK  102  A    between atoms: _290  and  _291
REMARK  103  A    between atoms: _291  and  _292
REMARK  104  A    between atoms: _297  and  _299
REMARK  105  A    between atoms: _299  and  _300
REMARK  106  A    between atoms: _299  and  _302
REMARK  107  A    between atoms: _302  and  _303
REMARK  108  A    between atoms: _306  and  _308
REMARK  109  A    between atoms: _308  and  _309
REMARK  110  A    between atoms: _312  and  _314
REMARK  111  A    between atoms: _314  and  _315
REMARK  112  A    between atoms: _314  and  _317
REMARK  113  A    between atoms: _320  and  _322
REMARK  114  A    between atoms: _322  and  _323
REMARK  115  A    between atoms: _322  and  _325
REMARK  116  A    between atoms: _325  and  _326
REMARK  117  A    between atoms: _329  and  _331
REMARK  118  A    between atoms: _331  and  _332
REMARK  119  A    between atoms: _334  and  _336
REMARK  120  A    between atoms: _336  and  _337
REMARK  121  A    between atoms: _336  and  _339
REMARK  122  A    between atoms: _339  and  _340
REMARK  123  A    between atoms: _342  and  _344
REMARK  124  A    between atoms: _344  and  _345
REMARK  125  A    between atoms: _344  and  _347
REMARK  126  A    between atoms: _347  and  _348
REMARK  127  A    between atoms: _351  and  _353
REMARK  128  A    between atoms: _353  and  _354
REMARK  129  A    between atoms: _353  and  _356
REMARK  130  A    between atoms: _356  and  _357
REMARK  131  A    between atoms: _360  and  _362
REMARK  132  A    between atoms: _362  and  _363
REMARK  133  A    between atoms: _362  and  _365
REMARK  134  A    between atoms: _365  and  _366
REMARK  135  A    between atoms: _370  and  _371
REMARK  136  A    between atoms: _377  and  _378
REMARK  137  A    between atoms: _383  and  _385
REMARK  138  A    between atoms: _385  and  _386
REMARK  139  A    between atoms: _385  and  _388
REMARK  140  A    between atoms: _388  and  _389
REMARK  141  A    between atoms: _392  and  _394
REMARK  142  A    between atoms: _394  and  _395
REMARK  143  A    between atoms: _394  and  _397
REMARK  144  A    between atoms: _397  and  _398
REMARK  145  A    between atoms: _401  and  _403
REMARK  146  A    between atoms: _403  and  _404
REMARK  147  A    between atoms: _403  and  _406
REMARK  148  A    between atoms: _409  and  _411
REMARK  149  A    between atoms: _411  and  _412
REMARK  150  A    between atoms: _411  and  _414
REMARK  151  A    between atoms: _414  and  _415
REMARK  152  A    between atoms: _425  and  _427
REMARK  153  A    between atoms: _427  and  _428
REMARK  154  A    between atoms: _427  and  _430
REMARK  155  A    between atoms: _430  and  _431
REMARK  156  A    between atoms: _436  and  _438
REMARK  157  A    between atoms: _438  and  _439
REMARK  158  A    between atoms: _438  and  _441
REMARK  159  A    between atoms: _441  and  _442
REMARK  160  A    between atoms: _442  and  _443
REMARK  161  A    between atoms: _443  and  _444
REMARK                            x       y       z     vdW  Elec       q    Type
REMARK                         _______ _______ _______ _____ _____    ______ ____
ROOT
ATOM      1  O   HOH     1       1.177  11.737  22.633  0.00  0.00    +0.000 OA
ENDROOT
TORSDOF 0
REMARK  Name = ../refined-set-2016/1g53/1g53_pocket.pdb
REMARK  161 active torsions:
REMARK  status: ('A' for Active; 'I' for Inactive)
REMARK    1  A    between atoms: _1  and  _3
REMARK    2  A    between atoms: _3  and  _4
REMARK    3  A    between atoms: _3  and  _6
REMARK    4  A    between atoms: _6  and  _7
REMARK    5  A    between atoms: _12  and  _14
REMARK    6  A    between atoms: _14  and  _15
REMARK    7  A    between atoms: _14  and  _17
REMARK    8  A    between atoms: _17  and  _18
REMARK    9  A    between atoms: _28  and  _30
REMARK   10  A    between atoms: _30  and  _31
REMARK   11  A    between atoms: _30  and  _33
REMARK   12  A    between atoms: _33  and  _34
REMARK   13  A    between atoms: _39  and  _40
REMARK   14  A    between atoms: _42  and  _44
REMARK   15  A    between atoms: _44  and  _45
REMARK   16  A    between atoms: _44  and  _47
REMARK   17  A    between atoms: _47  and  _48
REMARK   18  A    between atoms: _54  and  _56
REMARK   19  A    between atoms: _56  and  _57
REMARK   20  A    between atoms: _56  and  _59
REMARK   21  A    between atoms: _59  and  _60
REMARK   22  A    between atoms: _63  and  _64
REMARK   23  A    between atoms: _69  and  _71
REMARK   24  A    between atoms: _71  and  _72
REMARK   25  A    between atoms: _71  and  _74
REMARK   26  A    between atoms: _74  and  _75
REMARK   27  A    between atoms: _80  and  _82
REMARK   28  A    between atoms: _82  and  _83
REMARK   29  A    between atoms: _82  and  _85
REMARK   30  A    between atoms: _85  and  _86
REMARK   31  A    between atoms: _91  and  _93
REMARK   32  A    between atoms: _93  and  _94
REMARK   33  A    between atoms: _97  and  _99
REMARK   34  A    between atoms: _99  and  _100
REMARK   35  A    between atoms: _99  and  _102
REMARK   36  A    between atoms: _102  and  _103
REMARK   37  A    between atoms: _108  and  _110
REMARK   38  A    between atoms: _110  and  _111
REMARK   39  A    between atoms: _110  and  _113
REMARK   40  A    between atoms: _113  and  _114
REMARK   41  A    between atoms: _117  and  _119
REMARK   42  A    between atoms: _119  and  _120
REMARK   43  A    between atoms: _119  and  _122
REMARK   44  A    between atoms: _122  and  _123
REMARK   45  A    between atoms: _123  and  _124
REMARK   46  A    between atoms: _129  and  _131
REMARK   47  A    between atoms: _131  and  _132
REMARK   48  A    between atoms: _131  and  _134
REMARK   49  A    between atoms: _134  and  _135
REMARK   50  A    between atoms: _141  and  _143
REMARK   51  A    between atoms: _154  and  _157
REMARK   52  A    between atoms: _157  and  _158
REMARK   53  A    between atoms: _166  and  _167
REMARK   54  A    between atoms: _175  and  _177
REMARK   55  A    between atoms: _177  and  _178
REMARK   56  A    between atoms: _177  and  _180
REMARK   57  A    between atoms: _180  and  _181
REMARK   58  A    between atoms: _181  and  _182
REMARK   59  A    between atoms: _185  and  _187
REMARK   60  A    between atoms: _187  and  _188
REMARK   61  A    between atoms: _187  and  _190
REMARK   62  A    between atoms: _190  and  _191
REMARK   63  A    between atoms: _196  and  _198
REMARK   64  A    between atoms: _198  and  _199
REMARK   65  A    between atoms: _198  and  _201
REMARK   66  A    between atoms: _201  and  _202
REMARK   67  A    between atoms: _202  and  _203
REMARK   68  A    between atoms: _206  and  _208
REMARK   69  A    between atoms: _208  and  _209
REMARK   70  A    between atoms: _208  and  _211
REMARK   71  A    between atoms: _211  and  _212
REMARK   72  A    between atoms: _215  and  _217
REMARK   73  A    between atoms: _217  and  _218
REMARK   74  A    between atoms: _217  and  _220
REMARK   75  A    between atoms: _220  and  _221
REMARK   76  A    between atoms: _222  and  ZN_453
REMARK   77  A    between atoms: _226  and  _228
REMARK   78  A    between atoms: _228  and  _229
REMARK   79  A    between atoms: _228  and  _231
REMARK   80  A    between atoms: _231  and  _232
REMARK   81  A    between atoms: _235  and  _237
REMARK   82  A    between atoms: _237  and  _238
REMARK   83  A    between atoms: _237  and  _240
REMARK   84  A    between atoms: _243  and  _245
REMARK   85  A    between atoms: _245  and  _246
REMARK   86  A    between atoms: _245  and  _248
REMARK   87  A    between atoms: _248  and  _249
REMARK   88  A    between atoms: _254  and  _256
REMARK   89  A    between atoms: _256  and  _257
REMARK   90  A    between atoms: _256  and  _259
REMARK   91  A    between atoms: _259  and  _260
REMARK   92  A    between atoms: _266  and  _268
REMARK   93  A    between atoms: _268  and  _269
REMARK   94  A    between atoms: _271  and  _273
REMARK   95  A    between atoms: _273  and  _274
REMARK   96  A    between atoms: _277  and  _279
REMARK   97  A    between atoms: _279  and  _280
REMARK   98  A    between atoms: _279  and  _282
REMARK   99  A    between atoms: _285  and  _287
REMARK  100  A    between atoms: _287  and  _288
REMARK  101  A    between atoms: _287  and  _290
REMARK  102  A    between atoms: _290  and  _291
REMARK  103  A    between atoms: _291  and  _292
REMARK  104  A    between atoms: _297  and  _299
REMARK  105  A    between atoms: _299  and  _300
REMARK  106  A    between atoms: _299  and  _302
REMARK  107  A    between atoms: _302  and  _303
REMARK  108  A    between atoms: _306  and  _308
REMARK  109  A    between atoms: _308  and  _309
REMARK  110  A    between atoms: _312  and  _314
REMARK  111  A    between atoms: _314  and  _315
REMARK  112  A    between atoms: _314  and  _317
REMARK  113  A    between atoms: _320  and  _322
REMARK  114  A    between atoms: _322  and  _323
REMARK  115  A    between atoms: _322  and  _325
REMARK  116  A    between atoms: _325  and  _326
REMARK  117  A    between atoms: _329  and  _331
REMARK  118  A    between atoms: _331  and  _332
REMARK  119  A    between atoms: _334  and  _336
REMARK  120  A    between atoms: _336  and  _337
REMARK  121  A    between atoms: _336  and  _339
REMARK  122  A    between atoms: _339  and  _340
REMARK  123  A    between atoms: _342  and  _344
REMARK  124  A    between atoms: _344  and  _345
REMARK  125  A    between atoms: _344  and  _347
REMARK  126  A    between atoms: _347  and  _348
REMARK  127  A    between atoms: _351  and  _353
REMARK  128  A    between atoms: _353  and  _354
REMARK  129  A    between atoms: _353  and  _356
REMARK  130  A    between atoms: _356  and  _357
REMARK  131  A    between atoms: _360  and  _362
REMARK  132  A    between atoms: _362  and  _363
REMARK  133  A    between atoms: _362  and  _365
REMARK  134  A    between atoms: _365  and  _366
REMARK  135  A    between atoms: _370  and  _371
REMARK  136  A    between atoms: _377  and  _378
REMARK  137  A    between atoms: _383  and  _385
REMARK  138  A    between atoms: _385  and  _386
REMARK  139  A    between atoms: _385  and  _388
REMARK  140  A    between atoms: _388  and  _389
REMARK  141  A    between atoms: _392  and  _394
REMARK  142  A    between atoms: _394  and  _395
REMARK  143  A    between atoms: _394  and  _397
REMARK  144  A    between atoms: _397  and  _398
REMARK  145  A    between atoms: _401  and  _403
REMARK  146  A    between atoms: _403  and  _404
REMARK  147  A    between atoms: _403  and  _406
REMARK  148  A    between atoms: _409  and  _411
REMARK  149  A    between atoms: _411  and  _412
REMARK  150  A    between atoms: _411  and  _414
REMARK  151  A    between atoms: _414  and  _415
REMARK  152  A    between atoms: _425  and  _427
REMARK  153  A    between atoms: _427  and  _428
REMARK  154  A    between atoms: _427  and  _430
REMARK  155  A    between atoms: _430  and  _431
REMARK  156  A    between atoms: _436  and  _438
REMARK  157  A    between atoms: _438  and  _439
REMARK  158  A    between atoms: _438  and  _441
REMARK  159  A    between atoms: _441  and  _442
REMARK  160  A    between atoms: _442  and  _443
REMARK  161  A    between atoms: _443  and  _444
REMARK                            x       y       z     vdW  Elec       q    Type
REMARK                         _______ _______ _______ _____ _____    ______ ____
ROOT
ATOM      1  O   HOH     1      -6.157   7.598  10.727  0.00  0.00    +0.000 OA
ENDROOT
TORSDOF 0
REMARK  Name = ../refined-set-2016/1g53/1g53_pocket.pdb
REMARK  161 active torsions:
REMARK  status: ('A' for Active; 'I' for Inactive)
REMARK    1  A    between atoms: _1  and  _3
REMARK    2  A    between atoms: _3  and  _4
REMARK    3  A    between atoms: _3  and  _6
REMARK    4  A    between atoms: _6  and  _7
REMARK    5  A    between atoms: _12  and  _14
REMARK    6  A    between atoms: _14  and  _15
REMARK    7  A    between atoms: _14  and  _17
REMARK    8  A    between atoms: _17  and  _18
REMARK    9  A    between atoms: _28  and  _30
REMARK   10  A    between atoms: _30  and  _31
REMARK   11  A    between atoms: _30  and  _33
REMARK   12  A    between atoms: _33  and  _34
REMARK   13  A    between atoms: _39  and  _40
REMARK   14  A    between atoms: _42  and  _44
REMARK   15  A    between atoms: _44  and  _45
REMARK   16  A    between atoms: _44  and  _47
REMARK   17  A    between atoms: _47  and  _48
REMARK   18  A    between atoms: _54  and  _56
REMARK   19  A    between atoms: _56  and  _57
REMARK   20  A    between atoms: _56  and  _59
REMARK   21  A    between atoms: _59  and  _60
REMARK   22  A    between atoms: _63  and  _64
REMARK   23  A    between atoms: _69  and  _71
REMARK   24  A    between atoms: _71  and  _72
REMARK   25  A    between atoms: _71  and  _74
REMARK   26  A    between atoms: _74  and  _75
REMARK   27  A    between atoms: _80  and  _82
REMARK   28  A    between atoms: _82  and  _83
REMARK   29  A    between atoms: _82  and  _85
REMARK   30  A    between atoms: _85  and  _86
REMARK   31  A    between atoms: _91  and  _93
REMARK   32  A    between atoms: _93  and  _94
REMARK   33  A    between atoms: _97  and  _99
REMARK   34  A    between atoms: _99  and  _100
REMARK   35  A    between atoms: _99  and  _102
REMARK   36  A    between atoms: _102  and  _103
REMARK   37  A    between atoms: _108  and  _110
REMARK   38  A    between atoms: _110  and  _111
REMARK   39  A    between atoms: _110  and  _113
REMARK   40  A    between atoms: _113  and  _114
REMARK   41  A    between atoms: _117  and  _119
REMARK   42  A    between atoms: _119  and  _120
REMARK   43  A    between atoms: _119  and  _122
REMARK   44  A    between atoms: _122  and  _123
REMARK   45  A    between atoms: _123  and  _124
REMARK   46  A    between atoms: _129  and  _131
REMARK   47  A    between atoms: _131  and  _132
REMARK   48  A    between atoms: _131  and  _134
REMARK   49  A    between atoms: _134  and  _135
REMARK   50  A    between atoms: _141  and  _143
REMARK   51  A    between atoms: _154  and  _157
REMARK   52  A    between atoms: _157  and  _158
REMARK   53  A    between atoms: _166  and  _167
REMARK   54  A    between atoms: _175  and  _177
REMARK   55  A    between atoms: _177  and  _178
REMARK   56  A    between atoms: _177  and  _180
REMARK   57  A    between atoms: _180  and  _181
REMARK   58  A    between atoms: _181  and  _182
REMARK   59  A    between atoms: _185  and  _187
REMARK   60  A    between atoms: _187  and  _188
REMARK   61  A    between atoms: _187  and  _190
REMARK   62  A    between atoms: _190  and  _191
REMARK   63  A    between atoms: _196  and  _198
REMARK   64  A    between atoms: _198  and  _199
REMARK   65  A    between atoms: _198  and  _201
REMARK   66  A    between atoms: _201  and  _202
REMARK   67  A    between atoms: _202  and  _203
REMARK   68  A    between atoms: _206  and  _208
REMARK   69  A    between atoms: _208  and  _209
REMARK   70  A    between atoms: _208  and  _211
REMARK   71  A    between atoms: _211  and  _212
REMARK   72  A    between atoms: _215  and  _217
REMARK   73  A    between atoms: _217  and  _218
REMARK   74  A    between atoms: _217  and  _220
REMARK   75  A    between atoms: _220  and  _221
REMARK   76  A    between atoms: _222  and  ZN_453
REMARK   77  A    between atoms: _226  and  _228
REMARK   78  A    between atoms: _228  and  _229
REMARK   79  A    between atoms: _228  and  _231
REMARK   80  A    between atoms: _231  and  _232
REMARK   81  A    between atoms: _235  and  _237
REMARK   82  A    between atoms: _237  and  _238
REMARK   83  A    between atoms: _237  and  _240
REMARK   84  A    between atoms: _243  and  _245
REMARK   85  A    between atoms: _245  and  _246
REMARK   86  A    between atoms: _245  and  _248
REMARK   87  A    between atoms: _248  and  _249
REMARK   88  A    between atoms: _254  and  _256
REMARK   89  A    between atoms: _256  and  _257
REMARK   90  A    between atoms: _256  and  _259
REMARK   91  A    between atoms: _259  and  _260
REMARK   92  A    between atoms: _266  and  _268
REMARK   93  A    between atoms: _268  and  _269
REMARK   94  A    between atoms: _271  and  _273
REMARK   95  A    between atoms: _273  and  _274
REMARK   96  A    between atoms: _277  and  _279
REMARK   97  A    between atoms: _279  and  _280
REMARK   98  A    between atoms: _279  and  _282
REMARK   99  A    between atoms: _285  and  _287
REMARK  100  A    between atoms: _287  and  _288
REMARK  101  A    between atoms: _287  and  _290
REMARK  102  A    between atoms: _290  and  _291
REMARK  103  A    between atoms: _291  and  _292
REMARK  104  A    between atoms: _297  and  _299
REMARK  105  A    between atoms: _299  and  _300
REMARK  106  A    between atoms: _299  and  _302
REMARK  107  A    between atoms: _302  and  _303
REMARK  108  A    between atoms: _306  and  _308
REMARK  109  A    between atoms: _308  and  _309
REMARK  110  A    between atoms: _312  and  _314
REMARK  111  A    between atoms: _314  and  _315
REMARK  112  A    between atoms: _314  and  _317
REMARK  113  A    between atoms: _320  and  _322
REMARK  114  A    between atoms: _322  and  _323
REMARK  115  A    between atoms: _322  and  _325
REMARK  116  A    between atoms: _325  and  _326
REMARK  117  A    between atoms: _329  and  _331
REMARK  118  A    between atoms: _331  and  _332
REMARK  119  A    between atoms: _334  and  _336
REMARK  120  A    between atoms: _336  and  _337
REMARK  121  A    between atoms: _336  and  _339
REMARK  122  A    between atoms: _339  and  _340
REMARK  123  A    between atoms: _342  and  _344
REMARK  124  A    between atoms: _344  and  _345
REMARK  125  A    between atoms: _344  and  _347
REMARK  126  A    between atoms: _347  and  _348
REMARK  127  A    between atoms: _351  and  _353
REMARK  128  A    between atoms: _353  and  _354
REMARK  129  A    between atoms: _353  and  _356
REMARK  130  A    between atoms: _356  and  _357
REMARK  131  A    between atoms: _360  and  _362
REMARK  132  A    between atoms: _362  and  _363
REMARK  133  A    between atoms: _362  and  _365
REMARK  134  A    between atoms: _365  and  _366
REMARK  135  A    between atoms: _370  and  _371
REMARK  136  A    between atoms: _377  and  _378
REMARK  137  A    between atoms: _383  and  _385
REMARK  138  A    between atoms: _385  and  _386
REMARK  139  A    between atoms: _385  and  _388
REMARK  140  A    between atoms: _388  and  _389
REMARK  141  A    between atoms: _392  and  _394
REMARK  142  A    between atoms: _394  and  _395
REMARK  143  A    between atoms: _394  and  _397
REMARK  144  A    between atoms: _397  and  _398
REMARK  145  A    between atoms: _401  and  _403
REMARK  146  A    between atoms: _403  and  _404
REMARK  147  A    between atoms: _403  and  _406
REMARK  148  A    between atoms: _409  and  _411
REMARK  149  A    between atoms: _411  and  _412
REMARK  150  A    between atoms: _411  and  _414
REMARK  151  A    between atoms: _414  and  _415
REMARK  152  A    between atoms: _425  and  _427
REMARK  153  A    between atoms: _427  and  _428
REMARK  154  A    between atoms: _427  and  _430
REMARK  155  A    between atoms: _430  and  _431
REMARK  156  A    between atoms: _436  and  _438
REMARK  157  A    between atoms: _438  and  _439
REMARK  158  A    between atoms: _438  and  _441
REMARK  159  A    between atoms: _441  and  _442
REMARK  160  A    between atoms: _442  and  _443
REMARK  161  A    between atoms: _443  and  _444
REMARK                            x       y       z     vdW  Elec       q    Type
REMARK                         _______ _______ _______ _____ _____    ______ ____
ROOT
ATOM      1  O   HOH     1       0.214   4.927   8.873  0.00  0.00    +0.000 OA
ENDROOT
TORSDOF 0
REMARK  Name = ../refined-set-2016/1g53/1g53_pocket.pdb
REMARK  161 active torsions:
REMARK  status: ('A' for Active; 'I' for Inactive)
REMARK    1  A    between atoms: _1  and  _3
REMARK    2  A    between atoms: _3  and  _4
REMARK    3  A    between atoms: _3  and  _6
REMARK    4  A    between atoms: _6  and  _7
REMARK    5  A    between atoms: _12  and  _14
REMARK    6  A    between atoms: _14  and  _15
REMARK    7  A    between atoms: _14  and  _17
REMARK    8  A    between atoms: _17  and  _18
REMARK    9  A    between atoms: _28  and  _30
REMARK   10  A    between atoms: _30  and  _31
REMARK   11  A    between atoms: _30  and  _33
REMARK   12  A    between atoms: _33  and  _34
REMARK   13  A    between atoms: _39  and  _40
REMARK   14  A    between atoms: _42  and  _44
REMARK   15  A    between atoms: _44  and  _45
REMARK   16  A    between atoms: _44  and  _47
REMARK   17  A    between atoms: _47  and  _48
REMARK   18  A    between atoms: _54  and  _56
REMARK   19  A    between atoms: _56  and  _57
REMARK   20  A    between atoms: _56  and  _59
REMARK   21  A    between atoms: _59  and  _60
REMARK   22  A    between atoms: _63  and  _64
REMARK   23  A    between atoms: _69  and  _71
REMARK   24  A    between atoms: _71  and  _72
REMARK   25  A    between atoms: _71  and  _74
REMARK   26  A    between atoms: _74  and  _75
REMARK   27  A    between atoms: _80  and  _82
REMARK   28  A    between atoms: _82  and  _83
REMARK   29  A    between atoms: _82  and  _85
REMARK   30  A    between atoms: _85  and  _86
REMARK   31  A    between atoms: _91  and  _93
REMARK   32  A    between atoms: _93  and  _94
REMARK   33  A    between atoms: _97  and  _99
REMARK   34  A    between atoms: _99  and  _100
REMARK   35  A    between atoms: _99  and  _102
REMARK   36  A    between atoms: _102  and  _103
REMARK   37  A    between atoms: _108  and  _110
REMARK   38  A    between atoms: _110  and  _111
REMARK   39  A    between atoms: _110  and  _113
REMARK   40  A    between atoms: _113  and  _114
REMARK   41  A    between atoms: _117  and  _119
REMARK   42  A    between atoms: _119  and  _120
REMARK   43  A    between atoms: _119  and  _122
REMARK   44  A    between atoms: _122  and  _123
REMARK   45  A    between atoms: _123  and  _124
REMARK   46  A    between atoms: _129  and  _131
REMARK   47  A    between atoms: _131  and  _132
REMARK   48  A    between atoms: _131  and  _134
REMARK   49  A    between atoms: _134  and  _135
REMARK   50  A    between atoms: _141  and  _143
REMARK   51  A    between atoms: _154  and  _157
REMARK   52  A    between atoms: _157  and  _158
REMARK   53  A    between atoms: _166  and  _167
REMARK   54  A    between atoms: _175  and  _177
REMARK   55  A    between atoms: _177  and  _178
REMARK   56  A    between atoms: _177  and  _180
REMARK   57  A    between atoms: _180  and  _181
REMARK   58  A    between atoms: _181  and  _182
REMARK   59  A    between atoms: _185  and  _187
REMARK   60  A    between atoms: _187  and  _188
REMARK   61  A    between atoms: _187  and  _190
REMARK   62  A    between atoms: _190  and  _191
REMARK   63  A    between atoms: _196  and  _198
REMARK   64  A    between atoms: _198  and  _199
REMARK   65  A    between atoms: _198  and  _201
REMARK   66  A    between atoms: _201  and  _202
REMARK   67  A    between atoms: _202  and  _203
REMARK   68  A    between atoms: _206  and  _208
REMARK   69  A    between atoms: _208  and  _209
REMARK   70  A    between atoms: _208  and  _211
REMARK   71  A    between atoms: _211  and  _212
REMARK   72  A    between atoms: _215  and  _217
REMARK   73  A    between atoms: _217  and  _218
REMARK   74  A    between atoms: _217  and  _220
REMARK   75  A    between atoms: _220  and  _221
REMARK   76  A    between atoms: _222  and  ZN_453
REMARK   77  A    between atoms: _226  and  _228
REMARK   78  A    between atoms: _228  and  _229
REMARK   79  A    between atoms: _228  and  _231
REMARK   80  A    between atoms: _231  and  _232
REMARK   81  A    between atoms: _235  and  _237
REMARK   82  A    between atoms: _237  and  _238
REMARK   83  A    between atoms: _237  and  _240
REMARK   84  A    between atoms: _243  and  _245
REMARK   85  A    between atoms: _245  and  _246
REMARK   86  A    between atoms: _245  and  _248
REMARK   87  A    between atoms: _248  and  _249
REMARK   88  A    between atoms: _254  and  _256
REMARK   89  A    between atoms: _256  and  _257
REMARK   90  A    between atoms: _256  and  _259
REMARK   91  A    between atoms: _259  and  _260
REMARK   92  A    between atoms: _266  and  _268
REMARK   93  A    between atoms: _268  and  _269
REMARK   94  A    between atoms: _271  and  _273
REMARK   95  A    between atoms: _273  and  _274
REMARK   96  A    between atoms: _277  and  _279
REMARK   97  A    between atoms: _279  and  _280
REMARK   98  A    between atoms: _279  and  _282
REMARK   99  A    between atoms: _285  and  _287
REMARK  100  A    between atoms: _287  and  _288
REMARK  101  A    between atoms: _287  and  _290
REMARK  102  A    between atoms: _290  and  _291
REMARK  103  A    between atoms: _291  and  _292
REMARK  104  A    between atoms: _297  and  _299
REMARK  105  A    between atoms: _299  and  _300
REMARK  106  A    between atoms: _299  and  _302
REMARK  107  A    between atoms: _302  and  _303
REMARK  108  A    between atoms: _306  and  _308
REMARK  109  A    between atoms: _308  and  _309
REMARK  110  A    between atoms: _312  and  _314
REMARK  111  A    between atoms: _314  and  _315
REMARK  112  A    between atoms: _314  and  _317
REMARK  113  A    between atoms: _320  and  _322
REMARK  114  A    between atoms: _322  and  _323
REMARK  115  A    between atoms: _322  and  _325
REMARK  116  A    between atoms: _325  and  _326
REMARK  117  A    between atoms: _329  and  _331
REMARK  118  A    between atoms: _331  and  _332
REMARK  119  A    between atoms: _334  and  _336
REMARK  120  A    between atoms: _336  and  _337
REMARK  121  A    between atoms: _336  and  _339
REMARK  122  A    between atoms: _339  and  _340
REMARK  123  A    between atoms: _342  and  _344
REMARK  124  A    between atoms: _344  and  _345
REMARK  125  A    between atoms: _344  and  _347
REMARK  126  A    between atoms: _347  and  _348
REMARK  127  A    between atoms: _351  and  _353
REMARK  128  A    between atoms: _353  and  _354
REMARK  129  A    between atoms: _353  and  _356
REMARK  130  A    between atoms: _356  and  _357
REMARK  131  A    between atoms: _360  and  _362
REMARK  132  A    between atoms: _362  and  _363
REMARK  133  A    between atoms: _362  and  _365
REMARK  134  A    between atoms: _365  and  _366
REMARK  135  A    between atoms: _370  and  _371
REMARK  136  A    between atoms: _377  and  _378
REMARK  137  A    between atoms: _383  and  _385
REMARK  138  A    between atoms: _385  and  _386
REMARK  139  A    between atoms: _385  and  _388
REMARK  140  A    between atoms: _388  and  _389
REMARK  141  A    between atoms: _392  and  _394
REMARK  142  A    between atoms: _394  and  _395
REMARK  143  A    between atoms: _394  and  _397
REMARK  144  A    between atoms: _397  and  _398
REMARK  145  A    between atoms: _401  and  _403
REMARK  146  A    between atoms: _403  and  _404
REMARK  147  A    between atoms: _403  and  _406
REMARK  148  A    between atoms: _409  and  _411
REMARK  149  A    between atoms: _411  and  _412
REMARK  150  A    between atoms: _411  and  _414
REMARK  151  A    between atoms: _414  and  _415
REMARK  152  A    between atoms: _425  and  _427
REMARK  153  A    between atoms: _427  and  _428
REMARK  154  A    between atoms: _427  and  _430
REMARK  155  A    between atoms: _430  and  _431
REMARK  156  A    between atoms: _436  and  _438
REMARK  157  A    between atoms: _438  and  _439
REMARK  158  A    between atoms: _438  and  _441
REMARK  159  A    between atoms: _441  and  _442
REMARK  160  A    between atoms: _442  and  _443
REMARK  161  A    between atoms: _443  and  _444
REMARK                            x       y       z     vdW  Elec       q    Type
REMARK                         _______ _______ _______ _____ _____    ______ ____
ROOT
ATOM      1  O   HOH     1      -4.464   4.559  10.172  0.00  0.00    +0.000 OA
ENDROOT
TORSDOF 0
REMARK  Name = ../refined-set-2016/1g53/1g53_pocket.pdb
REMARK  161 active torsions:
REMARK  status: ('A' for Active; 'I' for Inactive)
REMARK    1  A    between atoms: _1  and  _3
REMARK    2  A    between atoms: _3  and  _4
REMARK    3  A    between atoms: _3  and  _6
REMARK    4  A    between atoms: _6  and  _7
REMARK    5  A    between atoms: _12  and  _14
REMARK    6  A    between atoms: _14  and  _15
REMARK    7  A    between atoms: _14  and  _17
REMARK    8  A    between atoms: _17  and  _18
REMARK    9  A    between atoms: _28  and  _30
REMARK   10  A    between atoms: _30  and  _31
REMARK   11  A    between atoms: _30  and  _33
REMARK   12  A    between atoms: _33  and  _34
REMARK   13  A    between atoms: _39  and  _40
REMARK   14  A    between atoms: _42  and  _44
REMARK   15  A    between atoms: _44  and  _45
REMARK   16  A    between atoms: _44  and  _47
REMARK   17  A    between atoms: _47  and  _48
REMARK   18  A    between atoms: _54  and  _56
REMARK   19  A    between atoms: _56  and  _57
REMARK   20  A    between atoms: _56  and  _59
REMARK   21  A    between atoms: _59  and  _60
REMARK   22  A    between atoms: _63  and  _64
REMARK   23  A    between atoms: _69  and  _71
REMARK   24  A    between atoms: _71  and  _72
REMARK   25  A    between atoms: _71  and  _74
REMARK   26  A    between atoms: _74  and  _75
REMARK   27  A    between atoms: _80  and  _82
REMARK   28  A    between atoms: _82  and  _83
REMARK   29  A    between atoms: _82  and  _85
REMARK   30  A    between atoms: _85  and  _86
REMARK   31  A    between atoms: _91  and  _93
REMARK   32  A    between atoms: _93  and  _94
REMARK   33  A    between atoms: _97  and  _99
REMARK   34  A    between atoms: _99  and  _100
REMARK   35  A    between atoms: _99  and  _102
REMARK   36  A    between atoms: _102  and  _103
REMARK   37  A    between atoms: _108  and  _110
REMARK   38  A    between atoms: _110  and  _111
REMARK   39  A    between atoms: _110  and  _113
REMARK   40  A    between atoms: _113  and  _114
REMARK   41  A    between atoms: _117  and  _119
REMARK   42  A    between atoms: _119  and  _120
REMARK   43  A    between atoms: _119  and  _122
REMARK   44  A    between atoms: _122  and  _123
REMARK   45  A    between atoms: _123  and  _124
REMARK   46  A    between atoms: _129  and  _131
REMARK   47  A    between atoms: _131  and  _132
REMARK   48  A    between atoms: _131  and  _134
REMARK   49  A    between atoms: _134  and  _135
REMARK   50  A    between atoms: _141  and  _143
REMARK   51  A    between atoms: _154  and  _157
REMARK   52  A    between atoms: _157  and  _158
REMARK   53  A    between atoms: _166  and  _167
REMARK   54  A    between atoms: _175  and  _177
REMARK   55  A    between atoms: _177  and  _178
REMARK   56  A    between atoms: _177  and  _180
REMARK   57  A    between atoms: _180  and  _181
REMARK   58  A    between atoms: _181  and  _182
REMARK   59  A    between atoms: _185  and  _187
REMARK   60  A    between atoms: _187  and  _188
REMARK   61  A    between atoms: _187  and  _190
REMARK   62  A    between atoms: _190  and  _191
REMARK   63  A    between atoms: _196  and  _198
REMARK   64  A    between atoms: _198  and  _199
REMARK   65  A    between atoms: _198  and  _201
REMARK   66  A    between atoms: _201  and  _202
REMARK   67  A    between atoms: _202  and  _203
REMARK   68  A    between atoms: _206  and  _208
REMARK   69  A    between atoms: _208  and  _209
REMARK   70  A    between atoms: _208  and  _211
REMARK   71  A    between atoms: _211  and  _212
REMARK   72  A    between atoms: _215  and  _217
REMARK   73  A    between atoms: _217  and  _218
REMARK   74  A    between atoms: _217  and  _220
REMARK   75  A    between atoms: _220  and  _221
REMARK   76  A    between atoms: _222  and  ZN_453
REMARK   77  A    between atoms: _226  and  _228
REMARK   78  A    between atoms: _228  and  _229
REMARK   79  A    between atoms: _228  and  _231
REMARK   80  A    between atoms: _231  and  _232
REMARK   81  A    between atoms: _235  and  _237
REMARK   82  A    between atoms: _237  and  _238
REMARK   83  A    between atoms: _237  and  _240
REMARK   84  A    between atoms: _243  and  _245
REMARK   85  A    between atoms: _245  and  _246
REMARK   86  A    between atoms: _245  and  _248
REMARK   87  A    between atoms: _248  and  _249
REMARK   88  A    between atoms: _254  and  _256
REMARK   89  A    between atoms: _256  and  _257
REMARK   90  A    between atoms: _256  and  _259
REMARK   91  A    between atoms: _259  and  _260
REMARK   92  A    between atoms: _266  and  _268
REMARK   93  A    between atoms: _268  and  _269
REMARK   94  A    between atoms: _271  and  _273
REMARK   95  A    between atoms: _273  and  _274
REMARK   96  A    between atoms: _277  and  _279
REMARK   97  A    between atoms: _279  and  _280
REMARK   98  A    between atoms: _279  and  _282
REMARK   99  A    between atoms: _285  and  _287
REMARK  100  A    between atoms: _287  and  _288
REMARK  101  A    between atoms: _287  and  _290
REMARK  102  A    between atoms: _290  and  _291
REMARK  103  A    between atoms: _291  and  _292
REMARK  104  A    between atoms: _297  and  _299
REMARK  105  A    between atoms: _299  and  _300
REMARK  106  A    between atoms: _299  and  _302
REMARK  107  A    between atoms: _302  and  _303
REMARK  108  A    between atoms: _306  and  _308
REMARK  109  A    between atoms: _308  and  _309
REMARK  110  A    between atoms: _312  and  _314
REMARK  111  A    between atoms: _314  and  _315
REMARK  112  A    between atoms: _314  and  _317
REMARK  113  A    between atoms: _320  and  _322
REMARK  114  A    between atoms: _322  and  _323
REMARK  115  A    between atoms: _322  and  _325
REMARK  116  A    between atoms: _325  and  _326
REMARK  117  A    between atoms: _329  and  _331
REMARK  118  A    between atoms: _331  and  _332
REMARK  119  A    between atoms: _334  and  _336
REMARK  120  A    between atoms: _336  and  _337
REMARK  121  A    between atoms: _336  and  _339
REMARK  122  A    between atoms: _339  and  _340
REMARK  123  A    between atoms: _342  and  _344
REMARK  124  A    between atoms: _344  and  _345
REMARK  125  A    between atoms: _344  and  _347
REMARK  126  A    between atoms: _347  and  _348
REMARK  127  A    between atoms: _351  and  _353
REMARK  128  A    between atoms: _353  and  _354
REMARK  129  A    between atoms: _353  and  _356
REMARK  130  A    between atoms: _356  and  _357
REMARK  131  A    between atoms: _360  and  _362
REMARK  132  A    between atoms: _362  and  _363
REMARK  133  A    between atoms: _362  and  _365
REMARK  134  A    between atoms: _365  and  _366
REMARK  135  A    between atoms: _370  and  _371
REMARK  136  A    between atoms: _377  and  _378
REMARK  137  A    between atoms: _383  and  _385
REMARK  138  A    between atoms: _385  and  _386
REMARK  139  A    between atoms: _385  and  _388
REMARK  140  A    between atoms: _388  and  _389
REMARK  141  A    between atoms: _392  and  _394
REMARK  142  A    between atoms: _394  and  _395
REMARK  143  A    between atoms: _394  and  _397
REMARK  144  A    between atoms: _397  and  _398
REMARK  145  A    between atoms: _401  and  _403
REMARK  146  A    between atoms: _403  and  _404
REMARK  147  A    between atoms: _403  and  _406
REMARK  148  A    between atoms: _409  and  _411
REMARK  149  A    between atoms: _411  and  _412
REMARK  150  A    between atoms: _411  and  _414
REMARK  151  A    between atoms: _414  and  _415
REMARK  152  A    between atoms: _425  and  _427
REMARK  153  A    between atoms: _427  and  _428
REMARK  154  A    between atoms: _427  and  _430
REMARK  155  A    between atoms: _430  and  _431
REMARK  156  A    between atoms: _436  and  _438
REMARK  157  A    between atoms: _438  and  _439
REMARK  158  A    between atoms: _438  and  _441
REMARK  159  A    between atoms: _441  and  _442
REMARK  160  A    between atoms: _442  and  _443
REMARK  161  A    between atoms: _443  and  _444
REMARK                            x       y       z     vdW  Elec       q    Type
REMARK                         _______ _______ _______ _____ _____    ______ ____
ROOT
ATOM      1  O   HOH     1      -0.885   4.011  13.647  0.00  0.00    +0.000 OA
ENDROOT
TORSDOF 0
REMARK  Name = ../refined-set-2016/1g53/1g53_pocket.pdb
REMARK  161 active torsions:
REMARK  status: ('A' for Active; 'I' for Inactive)
REMARK    1  A    between atoms: _1  and  _3
REMARK    2  A    between atoms: _3  and  _4
REMARK    3  A    between atoms: _3  and  _6
REMARK    4  A    between atoms: _6  and  _7
REMARK    5  A    between atoms: _12  and  _14
REMARK    6  A    between atoms: _14  and  _15
REMARK    7  A    between atoms: _14  and  _17
REMARK    8  A    between atoms: _17  and  _18
REMARK    9  A    between atoms: _28  and  _30
REMARK   10  A    between atoms: _30  and  _31
REMARK   11  A    between atoms: _30  and  _33
REMARK   12  A    between atoms: _33  and  _34
REMARK   13  A    between atoms: _39  and  _40
REMARK   14  A    between atoms: _42  and  _44
REMARK   15  A    between atoms: _44  and  _45
REMARK   16  A    between atoms: _44  and  _47
REMARK   17  A    between atoms: _47  and  _48
REMARK   18  A    between atoms: _54  and  _56
REMARK   19  A    between atoms: _56  and  _57
REMARK   20  A    between atoms: _56  and  _59
REMARK   21  A    between atoms: _59  and  _60
REMARK   22  A    between atoms: _63  and  _64
REMARK   23  A    between atoms: _69  and  _71
REMARK   24  A    between atoms: _71  and  _72
REMARK   25  A    between atoms: _71  and  _74
REMARK   26  A    between atoms: _74  and  _75
REMARK   27  A    between atoms: _80  and  _82
REMARK   28  A    between atoms: _82  and  _83
REMARK   29  A    between atoms: _82  and  _85
REMARK   30  A    between atoms: _85  and  _86
REMARK   31  A    between atoms: _91  and  _93
REMARK   32  A    between atoms: _93  and  _94
REMARK   33  A    between atoms: _97  and  _99
REMARK   34  A    between atoms: _99  and  _100
REMARK   35  A    between atoms: _99  and  _102
REMARK   36  A    between atoms: _102  and  _103
REMARK   37  A    between atoms: _108  and  _110
REMARK   38  A    between atoms: _110  and  _111
REMARK   39  A    between atoms: _110  and  _113
REMARK   40  A    between atoms: _113  and  _114
REMARK   41  A    between atoms: _117  and  _119
REMARK   42  A    between atoms: _119  and  _120
REMARK   43  A    between atoms: _119  and  _122
REMARK   44  A    between atoms: _122  and  _123
REMARK   45  A    between atoms: _123  and  _124
REMARK   46  A    between atoms: _129  and  _131
REMARK   47  A    between atoms: _131  and  _132
REMARK   48  A    between atoms: _131  and  _134
REMARK   49  A    between atoms: _134  and  _135
REMARK   50  A    between atoms: _141  and  _143
REMARK   51  A    between atoms: _154  and  _157
REMARK   52  A    between atoms: _157  and  _158
REMARK   53  A    between atoms: _166  and  _167
REMARK   54  A    between atoms: _175  and  _177
REMARK   55  A    between atoms: _177  and  _178
REMARK   56  A    between atoms: _177  and  _180
REMARK   57  A    between atoms: _180  and  _181
REMARK   58  A    between atoms: _181  and  _182
REMARK   59  A    between atoms: _185  and  _187
REMARK   60  A    between atoms: _187  and  _188
REMARK   61  A    between atoms: _187  and  _190
REMARK   62  A    between atoms: _190  and  _191
REMARK   63  A    between atoms: _196  and  _198
REMARK   64  A    between atoms: _198  and  _199
REMARK   65  A    between atoms: _198  and  _201
REMARK   66  A    between atoms: _201  and  _202
REMARK   67  A    between atoms: _202  and  _203
REMARK   68  A    between atoms: _206  and  _208
REMARK   69  A    between atoms: _208  and  _209
REMARK   70  A    between atoms: _208  and  _211
REMARK   71  A    between atoms: _211  and  _212
REMARK   72  A    between atoms: _215  and  _217
REMARK   73  A    between atoms: _217  and  _218
REMARK   74  A    between atoms: _217  and  _220
REMARK   75  A    between atoms: _220  and  _221
REMARK   76  A    between atoms: _222  and  ZN_453
REMARK   77  A    between atoms: _226  and  _228
REMARK   78  A    between atoms: _228  and  _229
REMARK   79  A    between atoms: _228  and  _231
REMARK   80  A    between atoms: _231  and  _232
REMARK   81  A    between atoms: _235  and  _237
REMARK   82  A    between atoms: _237  and  _238
REMARK   83  A    between atoms: _237  and  _240
REMARK   84  A    between atoms: _243  and  _245
REMARK   85  A    between atoms: _245  and  _246
REMARK   86  A    between atoms: _245  and  _248
REMARK   87  A    between atoms: _248  and  _249
REMARK   88  A    between atoms: _254  and  _256
REMARK   89  A    between atoms: _256  and  _257
REMARK   90  A    between atoms: _256  and  _259
REMARK   91  A    between atoms: _259  and  _260
REMARK   92  A    between atoms: _266  and  _268
REMARK   93  A    between atoms: _268  and  _269
REMARK   94  A    between atoms: _271  and  _273
REMARK   95  A    between atoms: _273  and  _274
REMARK   96  A    between atoms: _277  and  _279
REMARK   97  A    between atoms: _279  and  _280
REMARK   98  A    between atoms: _279  and  _282
REMARK   99  A    between atoms: _285  and  _287
REMARK  100  A    between atoms: _287  and  _288
REMARK  101  A    between atoms: _287  and  _290
REMARK  102  A    between atoms: _290  and  _291
REMARK  103  A    between atoms: _291  and  _292
REMARK  104  A    between atoms: _297  and  _299
REMARK  105  A    between atoms: _299  and  _300
REMARK  106  A    between atoms: _299  and  _302
REMARK  107  A    between atoms: _302  and  _303
REMARK  108  A    between atoms: _306  and  _308
REMARK  109  A    between atoms: _308  and  _309
REMARK  110  A    between atoms: _312  and  _314
REMARK  111  A    between atoms: _314  and  _315
REMARK  112  A    between atoms: _314  and  _317
REMARK  113  A    between atoms: _320  and  _322
REMARK  114  A    between atoms: _322  and  _323
REMARK  115  A    between atoms: _322  and  _325
REMARK  116  A    between atoms: _325  and  _326
REMARK  117  A    between atoms: _329  and  _331
REMARK  118  A    between atoms: _331  and  _332
REMARK  119  A    between atoms: _334  and  _336
REMARK  120  A    between atoms: _336  and  _337
REMARK  121  A    between atoms: _336  and  _339
REMARK  122  A    between atoms: _339  and  _340
REMARK  123  A    between atoms: _342  and  _344
REMARK  124  A    between atoms: _344  and  _345
REMARK  125  A    between atoms: _344  and  _347
REMARK  126  A    between atoms: _347  and  _348
REMARK  127  A    between atoms: _351  and  _353
REMARK  128  A    between atoms: _353  and  _354
REMARK  129  A    between atoms: _353  and  _356
REMARK  130  A    between atoms: _356  and  _357
REMARK  131  A    between atoms: _360  and  _362
REMARK  132  A    between atoms: _362  and  _363
REMARK  133  A    between atoms: _362  and  _365
REMARK  134  A    between atoms: _365  and  _366
REMARK  135  A    between atoms: _370  and  _371
REMARK  136  A    between atoms: _377  and  _378
REMARK  137  A    between atoms: _383  and  _385
REMARK  138  A    between atoms: _385  and  _386
REMARK  139  A    between atoms: _385  and  _388
REMARK  140  A    between atoms: _388  and  _389
REMARK  141  A    between atoms: _392  and  _394
REMARK  142  A    between atoms: _394  and  _395
REMARK  143  A    between atoms: _394  and  _397
REMARK  144  A    between atoms: _397  and  _398
REMARK  145  A    between atoms: _401  and  _403
REMARK  146  A    between atoms: _403  and  _404
REMARK  147  A    between atoms: _403  and  _406
REMARK  148  A    between atoms: _409  and  _411
REMARK  149  A    between atoms: _411  and  _412
REMARK  150  A    between atoms: _411  and  _414
REMARK  151  A    between atoms: _414  and  _415
REMARK  152  A    between atoms: _425  and  _427
REMARK  153  A    between atoms: _427  and  _428
REMARK  154  A    between atoms: _427  and  _430
REMARK  155  A    between atoms: _430  and  _431
REMARK  156  A    between atoms: _436  and  _438
REMARK  157  A    between atoms: _438  and  _439
REMARK  158  A    between atoms: _438  and  _441
REMARK  159  A    between atoms: _441  and  _442
REMARK  160  A    between atoms: _442  and  _443
REMARK  161  A    between atoms: _443  and  _444
REMARK                            x       y       z     vdW  Elec       q    Type
REMARK                         _______ _______ _______ _____ _____    ______ ____
ROOT
ATOM      1  O   HOH     1      -0.970   2.832  10.651  0.00  0.00    +0.000 OA
ENDROOT
TORSDOF 0
REMARK  Name = ../refined-set-2016/1g53/1g53_pocket.pdb
REMARK  161 active torsions:
REMARK  status: ('A' for Active; 'I' for Inactive)
REMARK    1  A    between atoms: _1  and  _3
REMARK    2  A    between atoms: _3  and  _4
REMARK    3  A    between atoms: _3  and  _6
REMARK    4  A    between atoms: _6  and  _7
REMARK    5  A    between atoms: _12  and  _14
REMARK    6  A    between atoms: _14  and  _15
REMARK    7  A    between atoms: _14  and  _17
REMARK    8  A    between atoms: _17  and  _18
REMARK    9  A    between atoms: _28  and  _30
REMARK   10  A    between atoms: _30  and  _31
REMARK   11  A    between atoms: _30  and  _33
REMARK   12  A    between atoms: _33  and  _34
REMARK   13  A    between atoms: _39  and  _40
REMARK   14  A    between atoms: _42  and  _44
REMARK   15  A    between atoms: _44  and  _45
REMARK   16  A    between atoms: _44  and  _47
REMARK   17  A    between atoms: _47  and  _48
REMARK   18  A    between atoms: _54  and  _56
REMARK   19  A    between atoms: _56  and  _57
REMARK   20  A    between atoms: _56  and  _59
REMARK   21  A    between atoms: _59  and  _60
REMARK   22  A    between atoms: _63  and  _64
REMARK   23  A    between atoms: _69  and  _71
REMARK   24  A    between atoms: _71  and  _72
REMARK   25  A    between atoms: _71  and  _74
REMARK   26  A    between atoms: _74  and  _75
REMARK   27  A    between atoms: _80  and  _82
REMARK   28  A    between atoms: _82  and  _83
REMARK   29  A    between atoms: _82  and  _85
REMARK   30  A    between atoms: _85  and  _86
REMARK   31  A    between atoms: _91  and  _93
REMARK   32  A    between atoms: _93  and  _94
REMARK   33  A    between atoms: _97  and  _99
REMARK   34  A    between atoms: _99  and  _100
REMARK   35  A    between atoms: _99  and  _102
REMARK   36  A    between atoms: _102  and  _103
REMARK   37  A    between atoms: _108  and  _110
REMARK   38  A    between atoms: _110  and  _111
REMARK   39  A    between atoms: _110  and  _113
REMARK   40  A    between atoms: _113  and  _114
REMARK   41  A    between atoms: _117  and  _119
REMARK   42  A    between atoms: _119  and  _120
REMARK   43  A    between atoms: _119  and  _122
REMARK   44  A    between atoms: _122  and  _123
REMARK   45  A    between atoms: _123  and  _124
REMARK   46  A    between atoms: _129  and  _131
REMARK   47  A    between atoms: _131  and  _132
REMARK   48  A    between atoms: _131  and  _134
REMARK   49  A    between atoms: _134  and  _135
REMARK   50  A    between atoms: _141  and  _143
REMARK   51  A    between atoms: _154  and  _157
REMARK   52  A    between atoms: _157  and  _158
REMARK   53  A    between atoms: _166  and  _167
REMARK   54  A    between atoms: _175  and  _177
REMARK   55  A    between atoms: _177  and  _178
REMARK   56  A    between atoms: _177  and  _180
REMARK   57  A    between atoms: _180  and  _181
REMARK   58  A    between atoms: _181  and  _182
REMARK   59  A    between atoms: _185  and  _187
REMARK   60  A    between atoms: _187  and  _188
REMARK   61  A    between atoms: _187  and  _190
REMARK   62  A    between atoms: _190  and  _191
REMARK   63  A    between atoms: _196  and  _198
REMARK   64  A    between atoms: _198  and  _199
REMARK   65  A    between atoms: _198  and  _201
REMARK   66  A    between atoms: _201  and  _202
REMARK   67  A    between atoms: _202  and  _203
REMARK   68  A    between atoms: _206  and  _208
REMARK   69  A    between atoms: _208  and  _209
REMARK   70  A    between atoms: _208  and  _211
REMARK   71  A    between atoms: _211  and  _212
REMARK   72  A    between atoms: _215  and  _217
REMARK   73  A    between atoms: _217  and  _218
REMARK   74  A    between atoms: _217  and  _220
REMARK   75  A    between atoms: _220  and  _221
REMARK   76  A    between atoms: _222  and  ZN_453
REMARK   77  A    between atoms: _226  and  _228
REMARK   78  A    between atoms: _228  and  _229
REMARK   79  A    between atoms: _228  and  _231
REMARK   80  A    between atoms: _231  and  _232
REMARK   81  A    between atoms: _235  and  _237
REMARK   82  A    between atoms: _237  and  _238
REMARK   83  A    between atoms: _237  and  _240
REMARK   84  A    between atoms: _243  and  _245
REMARK   85  A    between atoms: _245  and  _246
REMARK   86  A    between atoms: _245  and  _248
REMARK   87  A    between atoms: _248  and  _249
REMARK   88  A    between atoms: _254  and  _256
REMARK   89  A    between atoms: _256  and  _257
REMARK   90  A    between atoms: _256  and  _259
REMARK   91  A    between atoms: _259  and  _260
REMARK   92  A    between atoms: _266  and  _268
REMARK   93  A    between atoms: _268  and  _269
REMARK   94  A    between atoms: _271  and  _273
REMARK   95  A    between atoms: _273  and  _274
REMARK   96  A    between atoms: _277  and  _279
REMARK   97  A    between atoms: _279  and  _280
REMARK   98  A    between atoms: _279  and  _282
REMARK   99  A    between atoms: _285  and  _287
REMARK  100  A    between atoms: _287  and  _288
REMARK  101  A    between atoms: _287  and  _290
REMARK  102  A    between atoms: _290  and  _291
REMARK  103  A    between atoms: _291  and  _292
REMARK  104  A    between atoms: _297  and  _299
REMARK  105  A    between atoms: _299  and  _300
REMARK  106  A    between atoms: _299  and  _302
REMARK  107  A    between atoms: _302  and  _303
REMARK  108  A    between atoms: _306  and  _308
REMARK  109  A    between atoms: _308  and  _309
REMARK  110  A    between atoms: _312  and  _314
REMARK  111  A    between atoms: _314  and  _315
REMARK  112  A    between atoms: _314  and  _317
REMARK  113  A    between atoms: _320  and  _322
REMARK  114  A    between atoms: _322  and  _323
REMARK  115  A    between atoms: _322  and  _325
REMARK  116  A    between atoms: _325  and  _326
REMARK  117  A    between atoms: _329  and  _331
REMARK  118  A    between atoms: _331  and  _332
REMARK  119  A    between atoms: _334  and  _336
REMARK  120  A    between atoms: _336  and  _337
REMARK  121  A    between atoms: _336  and  _339
REMARK  122  A    between atoms: _339  and  _340
REMARK  123  A    between atoms: _342  and  _344
REMARK  124  A    between atoms: _344  and  _345
REMARK  125  A    between atoms: _344  and  _347
REMARK  126  A    between atoms: _347  and  _348
REMARK  127  A    between atoms: _351  and  _353
REMARK  128  A    between atoms: _353  and  _354
REMARK  129  A    between atoms: _353  and  _356
REMARK  130  A    between atoms: _356  and  _357
REMARK  131  A    between atoms: _360  and  _362
REMARK  132  A    between atoms: _362  and  _363
REMARK  133  A    between atoms: _362  and  _365
REMARK  134  A    between atoms: _365  and  _366
REMARK  135  A    between atoms: _370  and  _371
REMARK  136  A    between atoms: _377  and  _378
REMARK  137  A    between atoms: _383  and  _385
REMARK  138  A    between atoms: _385  and  _386
REMARK  139  A    between atoms: _385  and  _388
REMARK  140  A    between atoms: _388  and  _389
REMARK  141  A    between atoms: _392  and  _394
REMARK  142  A    between atoms: _394  and  _395
REMARK  143  A    between atoms: _394  and  _397
REMARK  144  A    between atoms: _397  and  _398
REMARK  145  A    between atoms: _401  and  _403
REMARK  146  A    between atoms: _403  and  _404
REMARK  147  A    between atoms: _403  and  _406
REMARK  148  A    between atoms: _409  and  _411
REMARK  149  A    between atoms: _411  and  _412
REMARK  150  A    between atoms: _411  and  _414
REMARK  151  A    between atoms: _414  and  _415
REMARK  152  A    between atoms: _425  and  _427
REMARK  153  A    between atoms: _427  and  _428
REMARK  154  A    between atoms: _427  and  _430
REMARK  155  A    between atoms: _430  and  _431
REMARK  156  A    between atoms: _436  and  _438
REMARK  157  A    between atoms: _438  and  _439
REMARK  158  A    between atoms: _438  and  _441
REMARK  159  A    between atoms: _441  and  _442
REMARK  160  A    between atoms: _442  and  _443
REMARK  161  A    between atoms: _443  and  _444
REMARK                            x       y       z     vdW  Elec       q    Type
REMARK                         _______ _______ _______ _____ _____    ______ ____
ROOT
ATOM      1  O   HOH     1      -4.802   1.234  10.654  0.00  0.00    +0.000 OA
ENDROOT
TORSDOF 0
REMARK  Name = ../refined-set-2016/1g53/1g53_pocket.pdb
REMARK  161 active torsions:
REMARK  status: ('A' for Active; 'I' for Inactive)
REMARK    1  A    between atoms: _1  and  _3
REMARK    2  A    between atoms: _3  and  _4
REMARK    3  A    between atoms: _3  and  _6
REMARK    4  A    between atoms: _6  and  _7
REMARK    5  A    between atoms: _12  and  _14
REMARK    6  A    between atoms: _14  and  _15
REMARK    7  A    between atoms: _14  and  _17
REMARK    8  A    between atoms: _17  and  _18
REMARK    9  A    between atoms: _28  and  _30
REMARK   10  A    between atoms: _30  and  _31
REMARK   11  A    between atoms: _30  and  _33
REMARK   12  A    between atoms: _33  and  _34
REMARK   13  A    between atoms: _39  and  _40
REMARK   14  A    between atoms: _42  and  _44
REMARK   15  A    between atoms: _44  and  _45
REMARK   16  A    between atoms: _44  and  _47
REMARK   17  A    between atoms: _47  and  _48
REMARK   18  A    between atoms: _54  and  _56
REMARK   19  A    between atoms: _56  and  _57
REMARK   20  A    between atoms: _56  and  _59
REMARK   21  A    between atoms: _59  and  _60
REMARK   22  A    between atoms: _63  and  _64
REMARK   23  A    between atoms: _69  and  _71
REMARK   24  A    between atoms: _71  and  _72
REMARK   25  A    between atoms: _71  and  _74
REMARK   26  A    between atoms: _74  and  _75
REMARK   27  A    between atoms: _80  and  _82
REMARK   28  A    between atoms: _82  and  _83
REMARK   29  A    between atoms: _82  and  _85
REMARK   30  A    between atoms: _85  and  _86
REMARK   31  A    between atoms: _91  and  _93
REMARK   32  A    between atoms: _93  and  _94
REMARK   33  A    between atoms: _97  and  _99
REMARK   34  A    between atoms: _99  and  _100
REMARK   35  A    between atoms: _99  and  _102
REMARK   36  A    between atoms: _102  and  _103
REMARK   37  A    between atoms: _108  and  _110
REMARK   38  A    between atoms: _110  and  _111
REMARK   39  A    between atoms: _110  and  _113
REMARK   40  A    between atoms: _113  and  _114
REMARK   41  A    between atoms: _117  and  _119
REMARK   42  A    between atoms: _119  and  _120
REMARK   43  A    between atoms: _119  and  _122
REMARK   44  A    between atoms: _122  and  _123
REMARK   45  A    between atoms: _123  and  _124
REMARK   46  A    between atoms: _129  and  _131
REMARK   47  A    between atoms: _131  and  _132
REMARK   48  A    between atoms: _131  and  _134
REMARK   49  A    between atoms: _134  and  _135
REMARK   50  A    between atoms: _141  and  _143
REMARK   51  A    between atoms: _154  and  _157
REMARK   52  A    between atoms: _157  and  _158
REMARK   53  A    between atoms: _166  and  _167
REMARK   54  A    between atoms: _175  and  _177
REMARK   55  A    between atoms: _177  and  _178
REMARK   56  A    between atoms: _177  and  _180
REMARK   57  A    between atoms: _180  and  _181
REMARK   58  A    between atoms: _181  and  _182
REMARK   59  A    between atoms: _185  and  _187
REMARK   60  A    between atoms: _187  and  _188
REMARK   61  A    between atoms: _187  and  _190
REMARK   62  A    between atoms: _190  and  _191
REMARK   63  A    between atoms: _196  and  _198
REMARK   64  A    between atoms: _198  and  _199
REMARK   65  A    between atoms: _198  and  _201
REMARK   66  A    between atoms: _201  and  _202
REMARK   67  A    between atoms: _202  and  _203
REMARK   68  A    between atoms: _206  and  _208
REMARK   69  A    between atoms: _208  and  _209
REMARK   70  A    between atoms: _208  and  _211
REMARK   71  A    between atoms: _211  and  _212
REMARK   72  A    between atoms: _215  and  _217
REMARK   73  A    between atoms: _217  and  _218
REMARK   74  A    between atoms: _217  and  _220
REMARK   75  A    between atoms: _220  and  _221
REMARK   76  A    between atoms: _222  and  ZN_453
REMARK   77  A    between atoms: _226  and  _228
REMARK   78  A    between atoms: _228  and  _229
REMARK   79  A    between atoms: _228  and  _231
REMARK   80  A    between atoms: _231  and  _232
REMARK   81  A    between atoms: _235  and  _237
REMARK   82  A    between atoms: _237  and  _238
REMARK   83  A    between atoms: _237  and  _240
REMARK   84  A    between atoms: _243  and  _245
REMARK   85  A    between atoms: _245  and  _246
REMARK   86  A    between atoms: _245  and  _248
REMARK   87  A    between atoms: _248  and  _249
REMARK   88  A    between atoms: _254  and  _256
REMARK   89  A    between atoms: _256  and  _257
REMARK   90  A    between atoms: _256  and  _259
REMARK   91  A    between atoms: _259  and  _260
REMARK   92  A    between atoms: _266  and  _268
REMARK   93  A    between atoms: _268  and  _269
REMARK   94  A    between atoms: _271  and  _273
REMARK   95  A    between atoms: _273  and  _274
REMARK   96  A    between atoms: _277  and  _279
REMARK   97  A    between atoms: _279  and  _280
REMARK   98  A    between atoms: _279  and  _282
REMARK   99  A    between atoms: _285  and  _287
REMARK  100  A    between atoms: _287  and  _288
REMARK  101  A    between atoms: _287  and  _290
REMARK  102  A    between atoms: _290  and  _291
REMARK  103  A    between atoms: _291  and  _292
REMARK  104  A    between atoms: _297  and  _299
REMARK  105  A    between atoms: _299  and  _300
REMARK  106  A    between atoms: _299  and  _302
REMARK  107  A    between atoms: _302  and  _303
REMARK  108  A    between atoms: _306  and  _308
REMARK  109  A    between atoms: _308  and  _309
REMARK  110  A    between atoms: _312  and  _314
REMARK  111  A    between atoms: _314  and  _315
REMARK  112  A    between atoms: _314  and  _317
REMARK  113  A    between atoms: _320  and  _322
REMARK  114  A    between atoms: _322  and  _323
REMARK  115  A    between atoms: _322  and  _325
REMARK  116  A    between atoms: _325  and  _326
REMARK  117  A    between atoms: _329  and  _331
REMARK  118  A    between atoms: _331  and  _332
REMARK  119  A    between atoms: _334  and  _336
REMARK  120  A    between atoms: _336  and  _337
REMARK  121  A    between atoms: _336  and  _339
REMARK  122  A    between atoms: _339  and  _340
REMARK  123  A    between atoms: _342  and  _344
REMARK  124  A    between atoms: _344  and  _345
REMARK  125  A    between atoms: _344  and  _347
REMARK  126  A    between atoms: _347  and  _348
REMARK  127  A    between atoms: _351  and  _353
REMARK  128  A    between atoms: _353  and  _354
REMARK  129  A    between atoms: _353  and  _356
REMARK  130  A    between atoms: _356  and  _357
REMARK  131  A    between atoms: _360  and  _362
REMARK  132  A    between atoms: _362  and  _363
REMARK  133  A    between atoms: _362  and  _365
REMARK  134  A    between atoms: _365  and  _366
REMARK  135  A    between atoms: _370  and  _371
REMARK  136  A    between atoms: _377  and  _378
REMARK  137  A    between atoms: _383  and  _385
REMARK  138  A    between atoms: _385  and  _386
REMARK  139  A    between atoms: _385  and  _388
REMARK  140  A    between atoms: _388  and  _389
REMARK  141  A    between atoms: _392  and  _394
REMARK  142  A    between atoms: _394  and  _395
REMARK  143  A    between atoms: _394  and  _397
REMARK  144  A    between atoms: _397  and  _398
REMARK  145  A    between atoms: _401  and  _403
REMARK  146  A    between atoms: _403  and  _404
REMARK  147  A    between atoms: _403  and  _406
REMARK  148  A    between atoms: _409  and  _411
REMARK  149  A    between atoms: _411  and  _412
REMARK  150  A    between atoms: _411  and  _414
REMARK  151  A    between atoms: _414  and  _415
REMARK  152  A    between atoms: _425  and  _427
REMARK  153  A    between atoms: _427  and  _428
REMARK  154  A    between atoms: _427  and  _430
REMARK  155  A    between atoms: _430  and  _431
REMARK  156  A    between atoms: _436  and  _438
REMARK  157  A    between atoms: _438  and  _439
REMARK  158  A    between atoms: _438  and  _441
REMARK  159  A    between atoms: _441  and  _442
REMARK  160  A    between atoms: _442  and  _443
REMARK  161  A    between atoms: _443  and  _444
REMARK                            x       y       z     vdW  Elec       q    Type
REMARK                         _______ _______ _______ _____ _____    ______ ____
ROOT
ATOM      1  O   HOH     1      -4.362  -1.214  11.512  0.00  0.00    +0.000 OA
ENDROOT
TORSDOF 0
