REMARK  Name = ../refined-set-2016/1hvs/1hvs_pocket.pdb
REMARK  219 active torsions:
REMARK  status: ('A' for Active; 'I' for Inactive)
REMARK    1  A    between atoms: _1  and  _3
REMARK    2  A    between atoms: _3  and  _4
REMARK    3  A    between atoms: _3  and  _6
REMARK    4  A    between atoms: _6  and  _7
REMARK    5  A    between atoms: _7  and  _8
REMARK    6  A    between atoms: _8  and  _9
REMARK    7  A    between atoms: _19  and  _20
REMARK    8  A    between atoms: _25  and  _27
REMARK    9  A    between atoms: _27  and  _28
REMARK   10  A    between atoms: _27  and  _30
REMARK   11  A    between atoms: _30  and  _31
REMARK   12  A    between atoms: _34  and  _36
REMARK   13  A    between atoms: _36  and  _37
REMARK   14  A    between atoms: _36  and  _39
REMARK   15  A    between atoms: _39  and  _40
REMARK   16  A    between atoms: _43  and  _45
REMARK   17  A    between atoms: _45  and  _46
REMARK   18  A    between atoms: _45  and  _48
REMARK   19  A    between atoms: _48  and  _49
REMARK   20  A    between atoms: _52  and  _54
REMARK   21  A    between atoms: _54  and  _55
REMARK   22  A    between atoms: _54  and  _57
REMARK   23  A    between atoms: _57  and  _58
REMARK   24  A    between atoms: _61  and  _63
REMARK   25  A    between atoms: _63  and  _64
REMARK   26  A    between atoms: _63  and  _66
REMARK   27  A    between atoms: _66  and  _67
REMARK   28  A    between atoms: _70  and  _72
REMARK   29  A    between atoms: _72  and  _73
REMARK   30  A    between atoms: _75  and  _77
REMARK   31  A    between atoms: _77  and  _78
REMARK   32  A    between atoms: _81  and  _83
REMARK   33  A    between atoms: _83  and  _84
REMARK   34  A    between atoms: _83  and  _86
REMARK   35  A    between atoms: _86  and  _87
REMARK   36  A    between atoms: _90  and  _92
REMARK   37  A    between atoms: _92  and  _93
REMARK   38  A    between atoms: _92  and  _95
REMARK   39  A    between atoms: _95  and  _96
REMARK   40  A    between atoms: _99  and  _101
REMARK   41  A    between atoms: _101  and  _102
REMARK   42  A    between atoms: _101  and  _104
REMARK   43  A    between atoms: _104  and  _105
REMARK   44  A    between atoms: _108  and  _110
REMARK   45  A    between atoms: _110  and  _111
REMARK   46  A    between atoms: _110  and  _113
REMARK   47  A    between atoms: _116  and  _118
REMARK   48  A    between atoms: _118  and  _119
REMARK   49  A    between atoms: _118  and  _121
REMARK   50  A    between atoms: _121  and  _122
REMARK   51  A    between atoms: _122  and  _123
REMARK   52  A    between atoms: _123  and  _124
REMARK   53  A    between atoms: _124  and  _125
REMARK   54  A    between atoms: _129  and  _131
REMARK   55  A    between atoms: _131  and  _132
REMARK   56  A    between atoms: _131  and  _134
REMARK   57  A    between atoms: _134  and  _135
REMARK   58  A    between atoms: _138  and  _140
REMARK   59  A    between atoms: _140  and  _141
REMARK   60  A    between atoms: _143  and  _145
REMARK   61  A    between atoms: _145  and  _146
REMARK   62  A    between atoms: _148  and  _150
REMARK   63  A    between atoms: _150  and  _151
REMARK   64  A    between atoms: _150  and  _153
REMARK   65  A    between atoms: _153  and  _154
REMARK   66  A    between atoms: _157  and  _159
REMARK   67  A    between atoms: _159  and  _160
REMARK   68  A    between atoms: _162  and  _164
REMARK   69  A    between atoms: _164  and  _165
REMARK   70  A    between atoms: _167  and  _169
REMARK   71  A    between atoms: _169  and  _170
REMARK   72  A    between atoms: _169  and  _172
REMARK   73  A    between atoms: _172  and  _173
REMARK   74  A    between atoms: _179  and  _181
REMARK   75  A    between atoms: _181  and  _182
REMARK   76  A    between atoms: _181  and  _184
REMARK   77  A    between atoms: _184  and  _185
REMARK   78  A    between atoms: _188  and  _190
REMARK   79  A    between atoms: _190  and  _191
REMARK   80  A    between atoms: _190  and  _193
REMARK   81  A    between atoms: _196  and  _198
REMARK   82  A    between atoms: _198  and  _199
REMARK   83  A    between atoms: _198  and  _201
REMARK   84  A    between atoms: _201  and  _202
REMARK   85  A    between atoms: _205  and  _207
REMARK   86  A    between atoms: _207  and  _208
REMARK   87  A    between atoms: _207  and  _210
REMARK   88  A    between atoms: _210  and  _211
REMARK   89  A    between atoms: _215  and  _216
REMARK   90  A    between atoms: _221  and  _223
REMARK   91  A    between atoms: _223  and  _224
REMARK   92  A    between atoms: _227  and  _229
REMARK   93  A    between atoms: _229  and  _230
REMARK   94  A    between atoms: _229  and  _232
REMARK   95  A    between atoms: _232  and  _233
REMARK   96  A    between atoms: _238  and  _240
REMARK   97  A    between atoms: _240  and  _241
REMARK   98  A    between atoms: _240  and  _243
REMARK   99  A    between atoms: _243  and  _244
REMARK  100  A    between atoms: _247  and  _249
REMARK  101  A    between atoms: _249  and  _250
REMARK  102  A    between atoms: _249  and  _252
REMARK  103  A    between atoms: _252  and  _253
REMARK  104  A    between atoms: _256  and  _258
REMARK  105  A    between atoms: _258  and  _259
REMARK  106  A    between atoms: _261  and  _263
REMARK  107  A    between atoms: _263  and  _264
REMARK  108  A    between atoms: _263  and  _266
REMARK  109  A    between atoms: _266  and  _267
REMARK  110  A    between atoms: _267  and  _268
REMARK  111  A    between atoms: _268  and  _269
REMARK  112  A    between atoms: _278  and  _280
REMARK  113  A    between atoms: _280  and  _281
REMARK  114  A    between atoms: _280  and  _283
REMARK  115  A    between atoms: _283  and  _284
REMARK  116  A    between atoms: _284  and  _285
REMARK  117  A    between atoms: _285  and  _286
REMARK  118  A    between atoms: _295  and  _297
REMARK  119  A    between atoms: _297  and  _298
REMARK  120  A    between atoms: _297  and  _300
REMARK  121  A    between atoms: _300  and  _301
REMARK  122  A    between atoms: _304  and  _306
REMARK  123  A    between atoms: _306  and  _307
REMARK  124  A    between atoms: _306  and  _309
REMARK  125  A    between atoms: _309  and  _310
REMARK  126  A    between atoms: _313  and  _315
REMARK  127  A    between atoms: _315  and  _316
REMARK  128  A    between atoms: _315  and  _318
REMARK  129  A    between atoms: _318  and  _319
REMARK  130  A    between atoms: _322  and  _324
REMARK  131  A    between atoms: _324  and  _325
REMARK  132  A    between atoms: _324  and  _327
REMARK  133  A    between atoms: _327  and  _328
REMARK  134  A    between atoms: _331  and  _333
REMARK  135  A    between atoms: _333  and  _334
REMARK  136  A    between atoms: _333  and  _336
REMARK  137  A    between atoms: _336  and  _337
REMARK  138  A    between atoms: _340  and  _342
REMARK  139  A    between atoms: _342  and  _343
REMARK  140  A    between atoms: _345  and  _347
REMARK  141  A    between atoms: _347  and  _348
REMARK  142  A    between atoms: _351  and  _353
REMARK  143  A    between atoms: _353  and  _354
REMARK  144  A    between atoms: _353  and  _356
REMARK  145  A    between atoms: _356  and  _357
REMARK  146  A    between atoms: _360  and  _362
REMARK  147  A    between atoms: _362  and  _363
REMARK  148  A    between atoms: _362  and  _365
REMARK  149  A    between atoms: _365  and  _366
REMARK  150  A    between atoms: _369  and  _371
REMARK  151  A    between atoms: _371  and  _372
REMARK  152  A    between atoms: _371  and  _374
REMARK  153  A    between atoms: _374  and  _375
REMARK  154  A    between atoms: _378  and  _380
REMARK  155  A    between atoms: _380  and  _381
REMARK  156  A    between atoms: _380  and  _383
REMARK  157  A    between atoms: _386  and  _388
REMARK  158  A    between atoms: _388  and  _389
REMARK  159  A    between atoms: _388  and  _391
REMARK  160  A    between atoms: _391  and  _392
REMARK  161  A    between atoms: _392  and  _393
REMARK  162  A    between atoms: _393  and  _394
REMARK  163  A    between atoms: _394  and  _395
REMARK  164  A    between atoms: _399  and  _401
REMARK  165  A    between atoms: _401  and  _402
REMARK  166  A    between atoms: _401  and  _404
REMARK  167  A    between atoms: _404  and  _405
REMARK  168  A    between atoms: _408  and  _410
REMARK  169  A    between atoms: _410  and  _411
REMARK  170  A    between atoms: _413  and  _415
REMARK  171  A    between atoms: _415  and  _416
REMARK  172  A    between atoms: _418  and  _420
REMARK  173  A    between atoms: _420  and  _421
REMARK  174  A    between atoms: _420  and  _423
REMARK  175  A    between atoms: _423  and  _424
REMARK  176  A    between atoms: _427  and  _429
REMARK  177  A    between atoms: _429  and  _430
REMARK  178  A    between atoms: _432  and  _434
REMARK  179  A    between atoms: _434  and  _435
REMARK  180  A    between atoms: _437  and  _439
REMARK  181  A    between atoms: _439  and  _440
REMARK  182  A    between atoms: _439  and  _442
REMARK  183  A    between atoms: _442  and  _443
REMARK  184  A    between atoms: _449  and  _451
REMARK  185  A    between atoms: _451  and  _452
REMARK  186  A    between atoms: _451  and  _454
REMARK  187  A    between atoms: _454  and  _455
REMARK  188  A    between atoms: _458  and  _460
REMARK  189  A    between atoms: _460  and  _461
REMARK  190  A    between atoms: _460  and  _463
REMARK  191  A    between atoms: _463  and  _464
REMARK  192  A    between atoms: _468  and  _469
REMARK  193  A    between atoms: _474  and  _476
REMARK  194  A    between atoms: _476  and  _477
REMARK  195  A    between atoms: _476  and  _479
REMARK  196  A    between atoms: _479  and  _480
REMARK  197  A    between atoms: _484  and  _485
REMARK  198  A    between atoms: _490  and  _492
REMARK  199  A    between atoms: _492  and  _493
REMARK  200  A    between atoms: _496  and  _498
REMARK  201  A    between atoms: _498  and  _499
REMARK  202  A    between atoms: _498  and  _501
REMARK  203  A    between atoms: _501  and  _502
REMARK  204  A    between atoms: _507  and  _509
REMARK  205  A    between atoms: _509  and  _510
REMARK  206  A    between atoms: _509  and  _512
REMARK  207  A    between atoms: _512  and  _513
REMARK  208  A    between atoms: _516  and  _518
REMARK  209  A    between atoms: _518  and  _519
REMARK  210  A    between atoms: _518  and  _521
REMARK  211  A    between atoms: _521  and  _522
REMARK  212  A    between atoms: _525  and  _527
REMARK  213  A    between atoms: _527  and  _528
REMARK  214  A    between atoms: _530  and  _532
REMARK  215  A    between atoms: _532  and  _533
REMARK  216  A    between atoms: _532  and  _535
REMARK  217  A    between atoms: _535  and  _536
REMARK  218  A    between atoms: _536  and  _537
REMARK  219  A    between atoms: _537  and  _538
REMARK                            x       y       z     vdW  Elec       q    Type
REMARK                         _______ _______ _______ _____ _____    ______ ____
ROOT
ATOM      1  C   ARG A   1       2.073  -3.562  27.507  0.00  0.00    +0.241 C 
ATOM      2  O   ARG A   1       1.260  -3.964  28.318  0.00  0.00    -0.273 OA
ATOM      3  N   PRO A   2       2.031  -2.338  27.008  0.00  0.00    -0.272 N 
ATOM      4  CA  PRO A   2       1.038  -1.394  27.495  0.00  0.00    +0.152 C 
ATOM      5  CB  PRO A   2       1.727  -0.089  27.123  0.00  0.00    +0.031 C 
ATOM      6  CG  PRO A   2       2.516  -0.362  25.853  0.00  0.00    +0.024 C 
ATOM      7  CD  PRO A   2       3.003  -1.756  26.100  0.00  0.00    +0.094 C 
ENDROOT
BRANCH   4   8
ATOM      8  C   PRO A   2      -0.333  -1.600  26.864  0.00  0.00    +0.241 C 
ATOM      9  N   LEU A   3      -1.116  -2.424  27.532  0.00  0.00    -0.298 N 
ATOM     10  H   LEU A   3      -0.815  -2.801  28.453  0.00  0.00    +0.150 HD
ATOM     11  O   PRO A   2      -0.684  -1.051  25.827  0.00  0.00    -0.273 OA
BRANCH   9  12
ATOM     12  CA  LEU A   3      -2.402  -2.802  26.973  0.00  0.00    +0.137 C 
BRANCH  12  13
ATOM     13  C   LEU A   3      -3.495  -2.221  27.783  0.00  0.00    +0.227 C 
ATOM     14  O   LEU A   3      -3.418  -2.218  28.999  0.00  0.00    -0.286 OA
ENDBRANCH  12  13
BRANCH  12  15
ATOM     15  CB  LEU A   3      -2.548  -4.294  27.062  0.00  0.00    +0.028 C 
BRANCH  15  16
ATOM     16  CG  LEU A   3      -1.697  -5.163  26.126  0.00  0.00    +0.002 C 
ATOM     17  CD2 LEU A   3      -1.828  -6.619  26.550  0.00  0.00    +0.000 C 
ATOM     18  CD1 LEU A   3      -2.067  -4.958  24.681  0.00  0.00    +0.000 C 
ENDBRANCH  15  16
ENDBRANCH  12  15
ENDBRANCH   9  12
ENDBRANCH   4   8
BRANCH   1  19
ATOM     19  CA  ARG A   1       3.232  -4.461  27.065  0.00  0.00    +0.145 C 
BRANCH  19  20
ATOM     20  N   ARG A   1       3.853  -5.184  28.177  0.00  0.00    -0.238 NA
ATOM     21  H   ARG A   1       3.873  -6.224  28.193  0.00  0.00    +0.142 HD
ENDBRANCH  19  20
BRANCH  19  22
ATOM     22  CB  ARG A   1       2.684  -5.461  26.079  0.00  0.00    +0.030 C 
BRANCH  22  23
ATOM     23  CG  ARG A   1       3.744  -6.285  25.430  0.00  0.00    +0.045 C 
BRANCH  23  24
ATOM     24  CD  ARG A   1       3.061  -6.992  24.279  0.00  0.00    +0.174 C 
BRANCH  24  25
ATOM     25  NE  ARG A   1       3.994  -7.870  23.568  0.00  0.00    -0.265 N 
ATOM     26  CZ  ARG A   1       3.739  -9.187  23.458  0.00  0.00    +0.342 C 
ATOM     27  NH2 ARG A   1       2.622  -9.737  23.954  0.00  0.00    -0.292 N 
ATOM     28 HH21 ARG A   1       1.922  -9.142  24.441  0.00  0.00    +0.255 HD
ATOM     29 HH22 ARG A   1       2.456 -10.759  23.852  0.00  0.00    +0.255 HD
ATOM     30  NH1 ARG A   1       4.634  -9.957  22.841  0.00  0.00    -0.292 N 
ATOM     31 HH11 ARG A   1       4.462 -10.978  22.742  0.00  0.00    +0.255 HD
ATOM     32 HH12 ARG A   1       5.505  -9.537  22.458  0.00  0.00    +0.255 HD
ATOM     33  HE  ARG A   1       4.858  -7.473  23.146  0.00  0.00    +0.259 HD
ENDBRANCH  24  25
ENDBRANCH  23  24
ENDBRANCH  22  23
ENDBRANCH  19  22
ENDBRANCH   1  19
TORSDOF 11
REMARK  Name = ../refined-set-2016/1hvs/1hvs_pocket.pdb
REMARK  219 active torsions:
REMARK  status: ('A' for Active; 'I' for Inactive)
REMARK    1  A    between atoms: _1  and  _3
REMARK    2  A    between atoms: _3  and  _4
REMARK    3  A    between atoms: _3  and  _6
REMARK    4  A    between atoms: _6  and  _7
REMARK    5  A    between atoms: _7  and  _8
REMARK    6  A    between atoms: _8  and  _9
REMARK    7  A    between atoms: _19  and  _20
REMARK    8  A    between atoms: _25  and  _27
REMARK    9  A    between atoms: _27  and  _28
REMARK   10  A    between atoms: _27  and  _30
REMARK   11  A    between atoms: _30  and  _31
REMARK   12  A    between atoms: _34  and  _36
REMARK   13  A    between atoms: _36  and  _37
REMARK   14  A    between atoms: _36  and  _39
REMARK   15  A    between atoms: _39  and  _40
REMARK   16  A    between atoms: _43  and  _45
REMARK   17  A    between atoms: _45  and  _46
REMARK   18  A    between atoms: _45  and  _48
REMARK   19  A    between atoms: _48  and  _49
REMARK   20  A    between atoms: _52  and  _54
REMARK   21  A    between atoms: _54  and  _55
REMARK   22  A    between atoms: _54  and  _57
REMARK   23  A    between atoms: _57  and  _58
REMARK   24  A    between atoms: _61  and  _63
REMARK   25  A    between atoms: _63  and  _64
REMARK   26  A    between atoms: _63  and  _66
REMARK   27  A    between atoms: _66  and  _67
REMARK   28  A    between atoms: _70  and  _72
REMARK   29  A    between atoms: _72  and  _73
REMARK   30  A    between atoms: _75  and  _77
REMARK   31  A    between atoms: _77  and  _78
REMARK   32  A    between atoms: _81  and  _83
REMARK   33  A    between atoms: _83  and  _84
REMARK   34  A    between atoms: _83  and  _86
REMARK   35  A    between atoms: _86  and  _87
REMARK   36  A    between atoms: _90  and  _92
REMARK   37  A    between atoms: _92  and  _93
REMARK   38  A    between atoms: _92  and  _95
REMARK   39  A    between atoms: _95  and  _96
REMARK   40  A    between atoms: _99  and  _101
REMARK   41  A    between atoms: _101  and  _102
REMARK   42  A    between atoms: _101  and  _104
REMARK   43  A    between atoms: _104  and  _105
REMARK   44  A    between atoms: _108  and  _110
REMARK   45  A    between atoms: _110  and  _111
REMARK   46  A    between atoms: _110  and  _113
REMARK   47  A    between atoms: _116  and  _118
REMARK   48  A    between atoms: _118  and  _119
REMARK   49  A    between atoms: _118  and  _121
REMARK   50  A    between atoms: _121  and  _122
REMARK   51  A    between atoms: _122  and  _123
REMARK   52  A    between atoms: _123  and  _124
REMARK   53  A    between atoms: _124  and  _125
REMARK   54  A    between atoms: _129  and  _131
REMARK   55  A    between atoms: _131  and  _132
REMARK   56  A    between atoms: _131  and  _134
REMARK   57  A    between atoms: _134  and  _135
REMARK   58  A    between atoms: _138  and  _140
REMARK   59  A    between atoms: _140  and  _141
REMARK   60  A    between atoms: _143  and  _145
REMARK   61  A    between atoms: _145  and  _146
REMARK   62  A    between atoms: _148  and  _150
REMARK   63  A    between atoms: _150  and  _151
REMARK   64  A    between atoms: _150  and  _153
REMARK   65  A    between atoms: _153  and  _154
REMARK   66  A    between atoms: _157  and  _159
REMARK   67  A    between atoms: _159  and  _160
REMARK   68  A    between atoms: _162  and  _164
REMARK   69  A    between atoms: _164  and  _165
REMARK   70  A    between atoms: _167  and  _169
REMARK   71  A    between atoms: _169  and  _170
REMARK   72  A    between atoms: _169  and  _172
REMARK   73  A    between atoms: _172  and  _173
REMARK   74  A    between atoms: _179  and  _181
REMARK   75  A    between atoms: _181  and  _182
REMARK   76  A    between atoms: _181  and  _184
REMARK   77  A    between atoms: _184  and  _185
REMARK   78  A    between atoms: _188  and  _190
REMARK   79  A    between atoms: _190  and  _191
REMARK   80  A    between atoms: _190  and  _193
REMARK   81  A    between atoms: _196  and  _198
REMARK   82  A    between atoms: _198  and  _199
REMARK   83  A    between atoms: _198  and  _201
REMARK   84  A    between atoms: _201  and  _202
REMARK   85  A    between atoms: _205  and  _207
REMARK   86  A    between atoms: _207  and  _208
REMARK   87  A    between atoms: _207  and  _210
REMARK   88  A    between atoms: _210  and  _211
REMARK   89  A    between atoms: _215  and  _216
REMARK   90  A    between atoms: _221  and  _223
REMARK   91  A    between atoms: _223  and  _224
REMARK   92  A    between atoms: _227  and  _229
REMARK   93  A    between atoms: _229  and  _230
REMARK   94  A    between atoms: _229  and  _232
REMARK   95  A    between atoms: _232  and  _233
REMARK   96  A    between atoms: _238  and  _240
REMARK   97  A    between atoms: _240  and  _241
REMARK   98  A    between atoms: _240  and  _243
REMARK   99  A    between atoms: _243  and  _244
REMARK  100  A    between atoms: _247  and  _249
REMARK  101  A    between atoms: _249  and  _250
REMARK  102  A    between atoms: _249  and  _252
REMARK  103  A    between atoms: _252  and  _253
REMARK  104  A    between atoms: _256  and  _258
REMARK  105  A    between atoms: _258  and  _259
REMARK  106  A    between atoms: _261  and  _263
REMARK  107  A    between atoms: _263  and  _264
REMARK  108  A    between atoms: _263  and  _266
REMARK  109  A    between atoms: _266  and  _267
REMARK  110  A    between atoms: _267  and  _268
REMARK  111  A    between atoms: _268  and  _269
REMARK  112  A    between atoms: _278  and  _280
REMARK  113  A    between atoms: _280  and  _281
REMARK  114  A    between atoms: _280  and  _283
REMARK  115  A    between atoms: _283  and  _284
REMARK  116  A    between atoms: _284  and  _285
REMARK  117  A    between atoms: _285  and  _286
REMARK  118  A    between atoms: _295  and  _297
REMARK  119  A    between atoms: _297  and  _298
REMARK  120  A    between atoms: _297  and  _300
REMARK  121  A    between atoms: _300  and  _301
REMARK  122  A    between atoms: _304  and  _306
REMARK  123  A    between atoms: _306  and  _307
REMARK  124  A    between atoms: _306  and  _309
REMARK  125  A    between atoms: _309  and  _310
REMARK  126  A    between atoms: _313  and  _315
REMARK  127  A    between atoms: _315  and  _316
REMARK  128  A    between atoms: _315  and  _318
REMARK  129  A    between atoms: _318  and  _319
REMARK  130  A    between atoms: _322  and  _324
REMARK  131  A    between atoms: _324  and  _325
REMARK  132  A    between atoms: _324  and  _327
REMARK  133  A    between atoms: _327  and  _328
REMARK  134  A    between atoms: _331  and  _333
REMARK  135  A    between atoms: _333  and  _334
REMARK  136  A    between atoms: _333  and  _336
REMARK  137  A    between atoms: _336  and  _337
REMARK  138  A    between atoms: _340  and  _342
REMARK  139  A    between atoms: _342  and  _343
REMARK  140  A    between atoms: _345  and  _347
REMARK  141  A    between atoms: _347  and  _348
REMARK  142  A    between atoms: _351  and  _353
REMARK  143  A    between atoms: _353  and  _354
REMARK  144  A    between atoms: _353  and  _356
REMARK  145  A    between atoms: _356  and  _357
REMARK  146  A    between atoms: _360  and  _362
REMARK  147  A    between atoms: _362  and  _363
REMARK  148  A    between atoms: _362  and  _365
REMARK  149  A    between atoms: _365  and  _366
REMARK  150  A    between atoms: _369  and  _371
REMARK  151  A    between atoms: _371  and  _372
REMARK  152  A    between atoms: _371  and  _374
REMARK  153  A    between atoms: _374  and  _375
REMARK  154  A    between atoms: _378  and  _380
REMARK  155  A    between atoms: _380  and  _381
REMARK  156  A    between atoms: _380  and  _383
REMARK  157  A    between atoms: _386  and  _388
REMARK  158  A    between atoms: _388  and  _389
REMARK  159  A    between atoms: _388  and  _391
REMARK  160  A    between atoms: _391  and  _392
REMARK  161  A    between atoms: _392  and  _393
REMARK  162  A    between atoms: _393  and  _394
REMARK  163  A    between atoms: _394  and  _395
REMARK  164  A    between atoms: _399  and  _401
REMARK  165  A    between atoms: _401  and  _402
REMARK  166  A    between atoms: _401  and  _404
REMARK  167  A    between atoms: _404  and  _405
REMARK  168  A    between atoms: _408  and  _410
REMARK  169  A    between atoms: _410  and  _411
REMARK  170  A    between atoms: _413  and  _415
REMARK  171  A    between atoms: _415  and  _416
REMARK  172  A    between atoms: _418  and  _420
REMARK  173  A    between atoms: _420  and  _421
REMARK  174  A    between atoms: _420  and  _423
REMARK  175  A    between atoms: _423  and  _424
REMARK  176  A    between atoms: _427  and  _429
REMARK  177  A    between atoms: _429  and  _430
REMARK  178  A    between atoms: _432  and  _434
REMARK  179  A    between atoms: _434  and  _435
REMARK  180  A    between atoms: _437  and  _439
REMARK  181  A    between atoms: _439  and  _440
REMARK  182  A    between atoms: _439  and  _442
REMARK  183  A    between atoms: _442  and  _443
REMARK  184  A    between atoms: _449  and  _451
REMARK  185  A    between atoms: _451  and  _452
REMARK  186  A    between atoms: _451  and  _454
REMARK  187  A    between atoms: _454  and  _455
REMARK  188  A    between atoms: _458  and  _460
REMARK  189  A    between atoms: _460  and  _461
REMARK  190  A    between atoms: _460  and  _463
REMARK  191  A    between atoms: _463  and  _464
REMARK  192  A    between atoms: _468  and  _469
REMARK  193  A    between atoms: _474  and  _476
REMARK  194  A    between atoms: _476  and  _477
REMARK  195  A    between atoms: _476  and  _479
REMARK  196  A    between atoms: _479  and  _480
REMARK  197  A    between atoms: _484  and  _485
REMARK  198  A    between atoms: _490  and  _492
REMARK  199  A    between atoms: _492  and  _493
REMARK  200  A    between atoms: _496  and  _498
REMARK  201  A    between atoms: _498  and  _499
REMARK  202  A    between atoms: _498  and  _501
REMARK  203  A    between atoms: _501  and  _502
REMARK  204  A    between atoms: _507  and  _509
REMARK  205  A    between atoms: _509  and  _510
REMARK  206  A    between atoms: _509  and  _512
REMARK  207  A    between atoms: _512  and  _513
REMARK  208  A    between atoms: _516  and  _518
REMARK  209  A    between atoms: _518  and  _519
REMARK  210  A    between atoms: _518  and  _521
REMARK  211  A    between atoms: _521  and  _522
REMARK  212  A    between atoms: _525  and  _527
REMARK  213  A    between atoms: _527  and  _528
REMARK  214  A    between atoms: _530  and  _532
REMARK  215  A    between atoms: _532  and  _533
REMARK  216  A    between atoms: _532  and  _535
REMARK  217  A    between atoms: _535  and  _536
REMARK  218  A    between atoms: _536  and  _537
REMARK  219  A    between atoms: _537  and  _538
REMARK                            x       y       z     vdW  Elec       q    Type
REMARK                         _______ _______ _______ _____ _____    ______ ____
ROOT
ATOM      1  C   GLY A   5       4.669   4.159  16.200  0.00  0.00    +0.243 C 
ATOM      2  N   ALA A   6       3.338   4.309  16.428  0.00  0.00    -0.297 N 
ATOM      3  H   ALA A   6       2.991   4.549  17.379  0.00  0.00    +0.150 HD
ATOM      4  O   GLY A   5       5.142   3.877  15.102  0.00  0.00    -0.273 OA
ENDROOT
BRANCH   2   5
ATOM      5  CA  ALA A   6       2.395   4.129  15.319  0.00  0.00    +0.149 C 
ATOM      6  CB  ALA A   6       1.305   3.100  15.638  0.00  0.00    +0.031 C 
BRANCH   5   7
ATOM      7  C   ALA A   6       1.694   5.411  15.012  0.00  0.00    +0.241 C 
ATOM      8  O   ALA A   6       1.083   5.981  15.889  0.00  0.00    -0.273 OA
ATOM      9  N   ASP A   7       1.763   5.837  13.757  0.00  0.00    -0.297 N 
ATOM     10  H   ASP A   7       2.310   5.304  13.051  0.00  0.00    +0.150 HD
BRANCH   9  11
ATOM     11  CA  ASP A   7       1.065   7.059  13.376  0.00  0.00    +0.160 C 
BRANCH  11  12
ATOM     12  C   ASP A   7      -0.398   6.953  13.533  0.00  0.00    +0.241 C 
ATOM     13  O   ASP A   7      -1.020   7.906  13.964  0.00  0.00    -0.273 OA
ATOM     14  N   ASP A   8      -0.900   5.786  13.125  0.00  0.00    -0.297 N 
ATOM     15  H   ASP A   8      -0.235   5.024  12.882  0.00  0.00    +0.150 HD
BRANCH  14  16
ATOM     16  CA  ASP A   8      -2.337   5.516  12.999  0.00  0.00    +0.160 C 
BRANCH  16  17
ATOM     17  C   ASP A   8      -2.809   4.355  13.845  0.00  0.00    +0.241 C 
ATOM     18  O   ASP A   8      -2.015   3.594  14.368  0.00  0.00    -0.273 OA
ATOM     19  N   THR A   9      -4.112   4.228  13.952  0.00  0.00    -0.295 N 
ATOM     20  H   THR A   9      -4.717   4.895  13.432  0.00  0.00    +0.150 HD
BRANCH  19  21
ATOM     21  CA  THR A   9      -4.758   3.195  14.766  0.00  0.00    +0.176 C 
BRANCH  21  22
ATOM     22  C   THR A   9      -5.330   2.121  13.873  0.00  0.00    +0.243 C 
ATOM     23  N   VAL A  10      -4.907   0.878  14.134  0.00  0.00    -0.298 N 
ATOM     24  H   VAL A  10      -4.248   0.762  14.930  0.00  0.00    +0.150 HD
ATOM     25  O   THR A   9      -6.122   2.434  12.991  0.00  0.00    -0.273 OA
BRANCH  23  26
ATOM     26  CA  VAL A  10      -5.289  -0.345  13.397  0.00  0.00    +0.137 C 
BRANCH  26  27
ATOM     27  CB  VAL A  10      -4.092  -0.960  12.674  0.00  0.00    +0.026 C 
ATOM     28  CG2 VAL A  10      -3.278   0.076  11.938  0.00  0.00    +0.002 C 
ATOM     29  CG1 VAL A  10      -4.583  -2.010  11.700  0.00  0.00    +0.002 C 
ENDBRANCH  26  27
BRANCH  26  30
ATOM     30  C   VAL A  10      -5.877  -1.423  14.286  0.00  0.00    +0.227 C 
ATOM     31  O   VAL A  10      -5.244  -1.938  15.194  0.00  0.00    -0.286 OA
ENDBRANCH  26  30
ENDBRANCH  23  26
ENDBRANCH  21  22
BRANCH  21  32
ATOM     32  CB  THR A   9      -5.897   3.894  15.600  0.00  0.00    +0.137 C 
ATOM     33  CG2 THR A   9      -6.863   2.944  16.299  0.00  0.00    +0.034 C 
BRANCH  32  34
ATOM     34  OG1 THR A   9      -5.299   4.803  16.544  0.00  0.00    -0.382 OA
ATOM     35  HG1 THR A   9      -4.775   5.487  16.056  0.00  0.00    +0.210 HD
ENDBRANCH  32  34
ENDBRANCH  21  32
ENDBRANCH  19  21
ENDBRANCH  16  17
BRANCH  16  36
ATOM     36  CB  ASP A   8      -2.653   5.136  11.561  0.00  0.00    +0.143 C 
BRANCH  36  37
ATOM     37  CG  ASP A   8      -2.333   6.253  10.577  0.00  0.00    +0.367 C 
ATOM     38  OD2 ASP A   8      -2.948   7.318  10.673  0.00  0.00    -0.246 OA
ATOM     39  OD1 ASP A   8      -1.456   6.036   9.730  0.00  0.00    -0.246 OA
ENDBRANCH  36  37
ENDBRANCH  16  36
ENDBRANCH  14  16
ENDBRANCH  11  12
BRANCH  11  40
ATOM     40  CB  ASP A   7       1.228   7.365  11.921  0.00  0.00    +0.143 C 
BRANCH  40  41
ATOM     41  CG  ASP A   7       2.555   7.984  11.593  0.00  0.00    +0.367 C 
ATOM     42  OD2 ASP A   7       3.449   8.001  12.444  0.00  0.00    -0.246 OA
ATOM     43  OD1 ASP A   7       2.684   8.451  10.459  0.00  0.00    -0.246 OA
ENDBRANCH  40  41
ENDBRANCH  11  40
ENDBRANCH   9  11
ENDBRANCH   5   7
ENDBRANCH   2   5
BRANCH   1  44
ATOM     44  CA  GLY A   5       5.628   4.328  17.378  0.00  0.00    +0.176 C 
BRANCH  44  46
ATOM     45  C   THR A   4       4.567   5.594  19.011  0.00  0.00    +0.243 C 
ATOM     46  N   GLY A   5       4.949   4.404  18.654  0.00  0.00    -0.295 N 
ATOM     47  H   GLY A   5       4.779   3.565  19.244  0.00  0.00    +0.150 HD
ATOM     48  O   THR A   4       4.808   6.553  18.299  0.00  0.00    -0.273 OA
BRANCH  45  49
ATOM     49  CA  THR A   4       3.841   5.708  20.353  0.00  0.00    +0.176 C 
BRANCH  49  51
ATOM     50  C   ASP A   3       2.237   3.952  20.145  0.00  0.00    +0.241 C 
ATOM     51  N   THR A   4       3.256   4.474  20.822  0.00  0.00    -0.295 N 
ATOM     52  H   THR A   4       3.624   4.002  21.673  0.00  0.00    +0.150 HD
ATOM     53  O   ASP A   3       1.800   4.448  19.119  0.00  0.00    -0.273 OA
BRANCH  50  54
ATOM     54  CA  ASP A   3       1.692   2.639  20.672  0.00  0.00    +0.160 C 
BRANCH  54  57
ATOM     55  C   LEU A   2       0.556   2.313  22.674  0.00  0.00    +0.241 C 
ATOM     56  O   LEU A   2       1.628   2.003  23.194  0.00  0.00    -0.273 OA
ATOM     57  N   ASP A   3       0.484   2.821  21.471  0.00  0.00    -0.297 N 
ATOM     58  H   ASP A   3      -0.361   3.312  21.115  0.00  0.00    +0.150 HD
BRANCH  55  59
ATOM     59  CA  LEU A   2      -0.773   2.079  23.367  0.00  0.00    +0.149 C 
BRANCH  59  61
ATOM     60  C   LEU A   1      -1.612  -0.034  22.613  0.00  0.00    +0.238 C 
ATOM     61  N   LEU A   2      -1.021   0.661  23.583  0.00  0.00    -0.297 N 
ATOM     62  H   LEU A   2      -0.743   0.202  24.474  0.00  0.00    +0.150 HD
ATOM     63  O   LEU A   1      -2.057   0.447  21.580  0.00  0.00    -0.274 OA
BRANCH  60  64
ATOM     64  CA  LEU A   1      -1.740  -1.496  22.823  0.00  0.00    +0.145 C 
BRANCH  64  65
ATOM     65  N   LEU A   1      -3.045  -1.879  22.326  0.00  0.00    -0.238 NA
ATOM     66  H   LEU A   1      -3.199  -2.002  21.305  0.00  0.00    +0.142 HD
ENDBRANCH  64  65
BRANCH  64  67
ATOM     67  CB  LEU A   1      -0.808  -2.182  21.900  0.00  0.00    +0.026 C 
BRANCH  67  68
ATOM     68  CG  LEU A   1       0.650  -2.186  22.153  0.00  0.00    +0.002 C 
ATOM     69  CD2 LEU A   1       0.956  -3.048  23.369  0.00  0.00    +0.000 C 
ATOM     70  CD1 LEU A   1       1.317  -2.709  20.885  0.00  0.00    +0.000 C 
ENDBRANCH  67  68
ENDBRANCH  64  67
ENDBRANCH  60  64
ENDBRANCH  59  61
BRANCH  59  71
ATOM     71  CB  LEU A   2      -0.831   2.775  24.715  0.00  0.00    +0.029 C 
BRANCH  71  72
ATOM     72  CG  LEU A   2      -2.136   2.668  25.483  0.00  0.00    +0.002 C 
ATOM     73  CD2 LEU A   2      -2.020   3.476  26.741  0.00  0.00    +0.000 C 
ATOM     74  CD1 LEU A   2      -3.306   3.191  24.676  0.00  0.00    +0.000 C 
ENDBRANCH  71  72
ENDBRANCH  59  71
ENDBRANCH  55  59
ENDBRANCH  54  57
BRANCH  54  75
ATOM     75  CB  ASP A   3       1.320   1.657  19.550  0.00  0.00    +0.143 C 
BRANCH  75  76
ATOM     76  CG  ASP A   3       2.463   1.186  18.695  0.00  0.00    +0.367 C 
ATOM     77  OD2 ASP A   3       3.604   1.486  18.988  0.00  0.00    -0.246 OA
ATOM     78  OD1 ASP A   3       2.220   0.498  17.711  0.00  0.00    -0.246 OA
ENDBRANCH  75  76
ENDBRANCH  54  75
ENDBRANCH  50  54
ENDBRANCH  49  51
BRANCH  49  79
ATOM     79  CB  THR A   4       4.805   6.266  21.437  0.00  0.00    +0.137 C 
ATOM     80  CG2 THR A   4       4.099   6.513  22.753  0.00  0.00    +0.034 C 
BRANCH  79  81
ATOM     81  OG1 THR A   4       5.889   5.354  21.626  0.00  0.00    -0.382 OA
ATOM     82  HG1 THR A   4       6.379   5.244  20.773  0.00  0.00    +0.210 HD
ENDBRANCH  79  81
ENDBRANCH  49  79
ENDBRANCH  45  49
ENDBRANCH  44  46
ENDBRANCH   1  44
TORSDOF 35
REMARK  Name = ../refined-set-2016/1hvs/1hvs_pocket.pdb
REMARK  219 active torsions:
REMARK  status: ('A' for Active; 'I' for Inactive)
REMARK    1  A    between atoms: _1  and  _3
REMARK    2  A    between atoms: _3  and  _4
REMARK    3  A    between atoms: _3  and  _6
REMARK    4  A    between atoms: _6  and  _7
REMARK    5  A    between atoms: _7  and  _8
REMARK    6  A    between atoms: _8  and  _9
REMARK    7  A    between atoms: _19  and  _20
REMARK    8  A    between atoms: _25  and  _27
REMARK    9  A    between atoms: _27  and  _28
REMARK   10  A    between atoms: _27  and  _30
REMARK   11  A    between atoms: _30  and  _31
REMARK   12  A    between atoms: _34  and  _36
REMARK   13  A    between atoms: _36  and  _37
REMARK   14  A    between atoms: _36  and  _39
REMARK   15  A    between atoms: _39  and  _40
REMARK   16  A    between atoms: _43  and  _45
REMARK   17  A    between atoms: _45  and  _46
REMARK   18  A    between atoms: _45  and  _48
REMARK   19  A    between atoms: _48  and  _49
REMARK   20  A    between atoms: _52  and  _54
REMARK   21  A    between atoms: _54  and  _55
REMARK   22  A    between atoms: _54  and  _57
REMARK   23  A    between atoms: _57  and  _58
REMARK   24  A    between atoms: _61  and  _63
REMARK   25  A    between atoms: _63  and  _64
REMARK   26  A    between atoms: _63  and  _66
REMARK   27  A    between atoms: _66  and  _67
REMARK   28  A    between atoms: _70  and  _72
REMARK   29  A    between atoms: _72  and  _73
REMARK   30  A    between atoms: _75  and  _77
REMARK   31  A    between atoms: _77  and  _78
REMARK   32  A    between atoms: _81  and  _83
REMARK   33  A    between atoms: _83  and  _84
REMARK   34  A    between atoms: _83  and  _86
REMARK   35  A    between atoms: _86  and  _87
REMARK   36  A    between atoms: _90  and  _92
REMARK   37  A    between atoms: _92  and  _93
REMARK   38  A    between atoms: _92  and  _95
REMARK   39  A    between atoms: _95  and  _96
REMARK   40  A    between atoms: _99  and  _101
REMARK   41  A    between atoms: _101  and  _102
REMARK   42  A    between atoms: _101  and  _104
REMARK   43  A    between atoms: _104  and  _105
REMARK   44  A    between atoms: _108  and  _110
REMARK   45  A    between atoms: _110  and  _111
REMARK   46  A    between atoms: _110  and  _113
REMARK   47  A    between atoms: _116  and  _118
REMARK   48  A    between atoms: _118  and  _119
REMARK   49  A    between atoms: _118  and  _121
REMARK   50  A    between atoms: _121  and  _122
REMARK   51  A    between atoms: _122  and  _123
REMARK   52  A    between atoms: _123  and  _124
REMARK   53  A    between atoms: _124  and  _125
REMARK   54  A    between atoms: _129  and  _131
REMARK   55  A    between atoms: _131  and  _132
REMARK   56  A    between atoms: _131  and  _134
REMARK   57  A    between atoms: _134  and  _135
REMARK   58  A    between atoms: _138  and  _140
REMARK   59  A    between atoms: _140  and  _141
REMARK   60  A    between atoms: _143  and  _145
REMARK   61  A    between atoms: _145  and  _146
REMARK   62  A    between atoms: _148  and  _150
REMARK   63  A    between atoms: _150  and  _151
REMARK   64  A    between atoms: _150  and  _153
REMARK   65  A    between atoms: _153  and  _154
REMARK   66  A    between atoms: _157  and  _159
REMARK   67  A    between atoms: _159  and  _160
REMARK   68  A    between atoms: _162  and  _164
REMARK   69  A    between atoms: _164  and  _165
REMARK   70  A    between atoms: _167  and  _169
REMARK   71  A    between atoms: _169  and  _170
REMARK   72  A    between atoms: _169  and  _172
REMARK   73  A    between atoms: _172  and  _173
REMARK   74  A    between atoms: _179  and  _181
REMARK   75  A    between atoms: _181  and  _182
REMARK   76  A    between atoms: _181  and  _184
REMARK   77  A    between atoms: _184  and  _185
REMARK   78  A    between atoms: _188  and  _190
REMARK   79  A    between atoms: _190  and  _191
REMARK   80  A    between atoms: _190  and  _193
REMARK   81  A    between atoms: _196  and  _198
REMARK   82  A    between atoms: _198  and  _199
REMARK   83  A    between atoms: _198  and  _201
REMARK   84  A    between atoms: _201  and  _202
REMARK   85  A    between atoms: _205  and  _207
REMARK   86  A    between atoms: _207  and  _208
REMARK   87  A    between atoms: _207  and  _210
REMARK   88  A    between atoms: _210  and  _211
REMARK   89  A    between atoms: _215  and  _216
REMARK   90  A    between atoms: _221  and  _223
REMARK   91  A    between atoms: _223  and  _224
REMARK   92  A    between atoms: _227  and  _229
REMARK   93  A    between atoms: _229  and  _230
REMARK   94  A    between atoms: _229  and  _232
REMARK   95  A    between atoms: _232  and  _233
REMARK   96  A    between atoms: _238  and  _240
REMARK   97  A    between atoms: _240  and  _241
REMARK   98  A    between atoms: _240  and  _243
REMARK   99  A    between atoms: _243  and  _244
REMARK  100  A    between atoms: _247  and  _249
REMARK  101  A    between atoms: _249  and  _250
REMARK  102  A    between atoms: _249  and  _252
REMARK  103  A    between atoms: _252  and  _253
REMARK  104  A    between atoms: _256  and  _258
REMARK  105  A    between atoms: _258  and  _259
REMARK  106  A    between atoms: _261  and  _263
REMARK  107  A    between atoms: _263  and  _264
REMARK  108  A    between atoms: _263  and  _266
REMARK  109  A    between atoms: _266  and  _267
REMARK  110  A    between atoms: _267  and  _268
REMARK  111  A    between atoms: _268  and  _269
REMARK  112  A    between atoms: _278  and  _280
REMARK  113  A    between atoms: _280  and  _281
REMARK  114  A    between atoms: _280  and  _283
REMARK  115  A    between atoms: _283  and  _284
REMARK  116  A    between atoms: _284  and  _285
REMARK  117  A    between atoms: _285  and  _286
REMARK  118  A    between atoms: _295  and  _297
REMARK  119  A    between atoms: _297  and  _298
REMARK  120  A    between atoms: _297  and  _300
REMARK  121  A    between atoms: _300  and  _301
REMARK  122  A    between atoms: _304  and  _306
REMARK  123  A    between atoms: _306  and  _307
REMARK  124  A    between atoms: _306  and  _309
REMARK  125  A    between atoms: _309  and  _310
REMARK  126  A    between atoms: _313  and  _315
REMARK  127  A    between atoms: _315  and  _316
REMARK  128  A    between atoms: _315  and  _318
REMARK  129  A    between atoms: _318  and  _319
REMARK  130  A    between atoms: _322  and  _324
REMARK  131  A    between atoms: _324  and  _325
REMARK  132  A    between atoms: _324  and  _327
REMARK  133  A    between atoms: _327  and  _328
REMARK  134  A    between atoms: _331  and  _333
REMARK  135  A    between atoms: _333  and  _334
REMARK  136  A    between atoms: _333  and  _336
REMARK  137  A    between atoms: _336  and  _337
REMARK  138  A    between atoms: _340  and  _342
REMARK  139  A    between atoms: _342  and  _343
REMARK  140  A    between atoms: _345  and  _347
REMARK  141  A    between atoms: _347  and  _348
REMARK  142  A    between atoms: _351  and  _353
REMARK  143  A    between atoms: _353  and  _354
REMARK  144  A    between atoms: _353  and  _356
REMARK  145  A    between atoms: _356  and  _357
REMARK  146  A    between atoms: _360  and  _362
REMARK  147  A    between atoms: _362  and  _363
REMARK  148  A    between atoms: _362  and  _365
REMARK  149  A    between atoms: _365  and  _366
REMARK  150  A    between atoms: _369  and  _371
REMARK  151  A    between atoms: _371  and  _372
REMARK  152  A    between atoms: _371  and  _374
REMARK  153  A    between atoms: _374  and  _375
REMARK  154  A    between atoms: _378  and  _380
REMARK  155  A    between atoms: _380  and  _381
REMARK  156  A    between atoms: _380  and  _383
REMARK  157  A    between atoms: _386  and  _388
REMARK  158  A    between atoms: _388  and  _389
REMARK  159  A    between atoms: _388  and  _391
REMARK  160  A    between atoms: _391  and  _392
REMARK  161  A    between atoms: _392  and  _393
REMARK  162  A    between atoms: _393  and  _394
REMARK  163  A    between atoms: _394  and  _395
REMARK  164  A    between atoms: _399  and  _401
REMARK  165  A    between atoms: _401  and  _402
REMARK  166  A    between atoms: _401  and  _404
REMARK  167  A    between atoms: _404  and  _405
REMARK  168  A    between atoms: _408  and  _410
REMARK  169  A    between atoms: _410  and  _411
REMARK  170  A    between atoms: _413  and  _415
REMARK  171  A    between atoms: _415  and  _416
REMARK  172  A    between atoms: _418  and  _420
REMARK  173  A    between atoms: _420  and  _421
REMARK  174  A    between atoms: _420  and  _423
REMARK  175  A    between atoms: _423  and  _424
REMARK  176  A    between atoms: _427  and  _429
REMARK  177  A    between atoms: _429  and  _430
REMARK  178  A    between atoms: _432  and  _434
REMARK  179  A    between atoms: _434  and  _435
REMARK  180  A    between atoms: _437  and  _439
REMARK  181  A    between atoms: _439  and  _440
REMARK  182  A    between atoms: _439  and  _442
REMARK  183  A    between atoms: _442  and  _443
REMARK  184  A    between atoms: _449  and  _451
REMARK  185  A    between atoms: _451  and  _452
REMARK  186  A    between atoms: _451  and  _454
REMARK  187  A    between atoms: _454  and  _455
REMARK  188  A    between atoms: _458  and  _460
REMARK  189  A    between atoms: _460  and  _461
REMARK  190  A    between atoms: _460  and  _463
REMARK  191  A    between atoms: _463  and  _464
REMARK  192  A    between atoms: _468  and  _469
REMARK  193  A    between atoms: _474  and  _476
REMARK  194  A    between atoms: _476  and  _477
REMARK  195  A    between atoms: _476  and  _479
REMARK  196  A    between atoms: _479  and  _480
REMARK  197  A    between atoms: _484  and  _485
REMARK  198  A    between atoms: _490  and  _492
REMARK  199  A    between atoms: _492  and  _493
REMARK  200  A    between atoms: _496  and  _498
REMARK  201  A    between atoms: _498  and  _499
REMARK  202  A    between atoms: _498  and  _501
REMARK  203  A    between atoms: _501  and  _502
REMARK  204  A    between atoms: _507  and  _509
REMARK  205  A    between atoms: _509  and  _510
REMARK  206  A    between atoms: _509  and  _512
REMARK  207  A    between atoms: _512  and  _513
REMARK  208  A    between atoms: _516  and  _518
REMARK  209  A    between atoms: _518  and  _519
REMARK  210  A    between atoms: _518  and  _521
REMARK  211  A    between atoms: _521  and  _522
REMARK  212  A    between atoms: _525  and  _527
REMARK  213  A    between atoms: _527  and  _528
REMARK  214  A    between atoms: _530  and  _532
REMARK  215  A    between atoms: _532  and  _533
REMARK  216  A    between atoms: _532  and  _535
REMARK  217  A    between atoms: _535  and  _536
REMARK  218  A    between atoms: _536  and  _537
REMARK  219  A    between atoms: _537  and  _538
REMARK                            x       y       z     vdW  Elec       q    Type
REMARK                         _______ _______ _______ _____ _____    ______ ____
ROOT
ATOM      1  CG  LYS A   1      -5.626   3.922   3.373  0.00  0.00    -0.000 C 
ENDROOT
BRANCH   1   2
ATOM      2  CB  LYS A   1      -6.505   2.724   3.542  0.00  0.00    +0.025 C 
BRANCH   2   3
ATOM      3  CA  LYS A   1      -6.476   1.849   2.303  0.00  0.00    +0.133 C 
BRANCH   3   4
ATOM      4  N   LYS A   1      -7.756   1.163   2.160  0.00  0.00    -0.239 NA
ATOM      5  H   LYS A   1      -7.902   0.238   2.613  0.00  0.00    +0.142 HD
ENDBRANCH   3   4
BRANCH   3   6
ATOM      6  C   LYS A   1      -5.402   0.805   2.452  0.00  0.00    +0.224 C 
ATOM      7  O   LYS A   1      -5.724  -0.344   2.710  0.00  0.00    -0.287 OA
ENDBRANCH   3   6
ENDBRANCH   2   3
ENDBRANCH   1   2
BRANCH   1   8
ATOM      8  CD  LYS A   1      -5.705   4.753   4.629  0.00  0.00    -0.024 C 
BRANCH   8   9
ATOM      9  CE  LYS A   1      -4.664   4.342   5.662  0.00  0.00    -0.086 C 
BRANCH   9  10
ATOM     10  NZ  LYS A   1      -3.339   4.849   5.258  0.00  0.00    +0.380 N 
ATOM     11  HZ1 LYS A   1      -2.631   4.567   5.965  0.00  0.00    -0.089 HD
ATOM     12  HZ2 LYS A   1      -3.371   5.886   5.193  0.00  0.00    -0.089 HD
ATOM     13  HZ3 LYS A   1      -3.084   4.450   4.332  0.00  0.00    -0.089 HD
ENDBRANCH   9  10
ENDBRANCH   8   9
ENDBRANCH   1   8
TORSDOF 7
REMARK  Name = ../refined-set-2016/1hvs/1hvs_pocket.pdb
REMARK  219 active torsions:
REMARK  status: ('A' for Active; 'I' for Inactive)
REMARK    1  A    between atoms: _1  and  _3
REMARK    2  A    between atoms: _3  and  _4
REMARK    3  A    between atoms: _3  and  _6
REMARK    4  A    between atoms: _6  and  _7
REMARK    5  A    between atoms: _7  and  _8
REMARK    6  A    between atoms: _8  and  _9
REMARK    7  A    between atoms: _19  and  _20
REMARK    8  A    between atoms: _25  and  _27
REMARK    9  A    between atoms: _27  and  _28
REMARK   10  A    between atoms: _27  and  _30
REMARK   11  A    between atoms: _30  and  _31
REMARK   12  A    between atoms: _34  and  _36
REMARK   13  A    between atoms: _36  and  _37
REMARK   14  A    between atoms: _36  and  _39
REMARK   15  A    between atoms: _39  and  _40
REMARK   16  A    between atoms: _43  and  _45
REMARK   17  A    between atoms: _45  and  _46
REMARK   18  A    between atoms: _45  and  _48
REMARK   19  A    between atoms: _48  and  _49
REMARK   20  A    between atoms: _52  and  _54
REMARK   21  A    between atoms: _54  and  _55
REMARK   22  A    between atoms: _54  and  _57
REMARK   23  A    between atoms: _57  and  _58
REMARK   24  A    between atoms: _61  and  _63
REMARK   25  A    between atoms: _63  and  _64
REMARK   26  A    between atoms: _63  and  _66
REMARK   27  A    between atoms: _66  and  _67
REMARK   28  A    between atoms: _70  and  _72
REMARK   29  A    between atoms: _72  and  _73
REMARK   30  A    between atoms: _75  and  _77
REMARK   31  A    between atoms: _77  and  _78
REMARK   32  A    between atoms: _81  and  _83
REMARK   33  A    between atoms: _83  and  _84
REMARK   34  A    between atoms: _83  and  _86
REMARK   35  A    between atoms: _86  and  _87
REMARK   36  A    between atoms: _90  and  _92
REMARK   37  A    between atoms: _92  and  _93
REMARK   38  A    between atoms: _92  and  _95
REMARK   39  A    between atoms: _95  and  _96
REMARK   40  A    between atoms: _99  and  _101
REMARK   41  A    between atoms: _101  and  _102
REMARK   42  A    between atoms: _101  and  _104
REMARK   43  A    between atoms: _104  and  _105
REMARK   44  A    between atoms: _108  and  _110
REMARK   45  A    between atoms: _110  and  _111
REMARK   46  A    between atoms: _110  and  _113
REMARK   47  A    between atoms: _116  and  _118
REMARK   48  A    between atoms: _118  and  _119
REMARK   49  A    between atoms: _118  and  _121
REMARK   50  A    between atoms: _121  and  _122
REMARK   51  A    between atoms: _122  and  _123
REMARK   52  A    between atoms: _123  and  _124
REMARK   53  A    between atoms: _124  and  _125
REMARK   54  A    between atoms: _129  and  _131
REMARK   55  A    between atoms: _131  and  _132
REMARK   56  A    between atoms: _131  and  _134
REMARK   57  A    between atoms: _134  and  _135
REMARK   58  A    between atoms: _138  and  _140
REMARK   59  A    between atoms: _140  and  _141
REMARK   60  A    between atoms: _143  and  _145
REMARK   61  A    between atoms: _145  and  _146
REMARK   62  A    between atoms: _148  and  _150
REMARK   63  A    between atoms: _150  and  _151
REMARK   64  A    between atoms: _150  and  _153
REMARK   65  A    between atoms: _153  and  _154
REMARK   66  A    between atoms: _157  and  _159
REMARK   67  A    between atoms: _159  and  _160
REMARK   68  A    between atoms: _162  and  _164
REMARK   69  A    between atoms: _164  and  _165
REMARK   70  A    between atoms: _167  and  _169
REMARK   71  A    between atoms: _169  and  _170
REMARK   72  A    between atoms: _169  and  _172
REMARK   73  A    between atoms: _172  and  _173
REMARK   74  A    between atoms: _179  and  _181
REMARK   75  A    between atoms: _181  and  _182
REMARK   76  A    between atoms: _181  and  _184
REMARK   77  A    between atoms: _184  and  _185
REMARK   78  A    between atoms: _188  and  _190
REMARK   79  A    between atoms: _190  and  _191
REMARK   80  A    between atoms: _190  and  _193
REMARK   81  A    between atoms: _196  and  _198
REMARK   82  A    between atoms: _198  and  _199
REMARK   83  A    between atoms: _198  and  _201
REMARK   84  A    between atoms: _201  and  _202
REMARK   85  A    between atoms: _205  and  _207
REMARK   86  A    between atoms: _207  and  _208
REMARK   87  A    between atoms: _207  and  _210
REMARK   88  A    between atoms: _210  and  _211
REMARK   89  A    between atoms: _215  and  _216
REMARK   90  A    between atoms: _221  and  _223
REMARK   91  A    between atoms: _223  and  _224
REMARK   92  A    between atoms: _227  and  _229
REMARK   93  A    between atoms: _229  and  _230
REMARK   94  A    between atoms: _229  and  _232
REMARK   95  A    between atoms: _232  and  _233
REMARK   96  A    between atoms: _238  and  _240
REMARK   97  A    between atoms: _240  and  _241
REMARK   98  A    between atoms: _240  and  _243
REMARK   99  A    between atoms: _243  and  _244
REMARK  100  A    between atoms: _247  and  _249
REMARK  101  A    between atoms: _249  and  _250
REMARK  102  A    between atoms: _249  and  _252
REMARK  103  A    between atoms: _252  and  _253
REMARK  104  A    between atoms: _256  and  _258
REMARK  105  A    between atoms: _258  and  _259
REMARK  106  A    between atoms: _261  and  _263
REMARK  107  A    between atoms: _263  and  _264
REMARK  108  A    between atoms: _263  and  _266
REMARK  109  A    between atoms: _266  and  _267
REMARK  110  A    between atoms: _267  and  _268
REMARK  111  A    between atoms: _268  and  _269
REMARK  112  A    between atoms: _278  and  _280
REMARK  113  A    between atoms: _280  and  _281
REMARK  114  A    between atoms: _280  and  _283
REMARK  115  A    between atoms: _283  and  _284
REMARK  116  A    between atoms: _284  and  _285
REMARK  117  A    between atoms: _285  and  _286
REMARK  118  A    between atoms: _295  and  _297
REMARK  119  A    between atoms: _297  and  _298
REMARK  120  A    between atoms: _297  and  _300
REMARK  121  A    between atoms: _300  and  _301
REMARK  122  A    between atoms: _304  and  _306
REMARK  123  A    between atoms: _306  and  _307
REMARK  124  A    between atoms: _306  and  _309
REMARK  125  A    between atoms: _309  and  _310
REMARK  126  A    between atoms: _313  and  _315
REMARK  127  A    between atoms: _315  and  _316
REMARK  128  A    between atoms: _315  and  _318
REMARK  129  A    between atoms: _318  and  _319
REMARK  130  A    between atoms: _322  and  _324
REMARK  131  A    between atoms: _324  and  _325
REMARK  132  A    between atoms: _324  and  _327
REMARK  133  A    between atoms: _327  and  _328
REMARK  134  A    between atoms: _331  and  _333
REMARK  135  A    between atoms: _333  and  _334
REMARK  136  A    between atoms: _333  and  _336
REMARK  137  A    between atoms: _336  and  _337
REMARK  138  A    between atoms: _340  and  _342
REMARK  139  A    between atoms: _342  and  _343
REMARK  140  A    between atoms: _345  and  _347
REMARK  141  A    between atoms: _347  and  _348
REMARK  142  A    between atoms: _351  and  _353
REMARK  143  A    between atoms: _353  and  _354
REMARK  144  A    between atoms: _353  and  _356
REMARK  145  A    between atoms: _356  and  _357
REMARK  146  A    between atoms: _360  and  _362
REMARK  147  A    between atoms: _362  and  _363
REMARK  148  A    between atoms: _362  and  _365
REMARK  149  A    between atoms: _365  and  _366
REMARK  150  A    between atoms: _369  and  _371
REMARK  151  A    between atoms: _371  and  _372
REMARK  152  A    between atoms: _371  and  _374
REMARK  153  A    between atoms: _374  and  _375
REMARK  154  A    between atoms: _378  and  _380
REMARK  155  A    between atoms: _380  and  _381
REMARK  156  A    between atoms: _380  and  _383
REMARK  157  A    between atoms: _386  and  _388
REMARK  158  A    between atoms: _388  and  _389
REMARK  159  A    between atoms: _388  and  _391
REMARK  160  A    between atoms: _391  and  _392
REMARK  161  A    between atoms: _392  and  _393
REMARK  162  A    between atoms: _393  and  _394
REMARK  163  A    between atoms: _394  and  _395
REMARK  164  A    between atoms: _399  and  _401
REMARK  165  A    between atoms: _401  and  _402
REMARK  166  A    between atoms: _401  and  _404
REMARK  167  A    between atoms: _404  and  _405
REMARK  168  A    between atoms: _408  and  _410
REMARK  169  A    between atoms: _410  and  _411
REMARK  170  A    between atoms: _413  and  _415
REMARK  171  A    between atoms: _415  and  _416
REMARK  172  A    between atoms: _418  and  _420
REMARK  173  A    between atoms: _420  and  _421
REMARK  174  A    between atoms: _420  and  _423
REMARK  175  A    between atoms: _423  and  _424
REMARK  176  A    between atoms: _427  and  _429
REMARK  177  A    between atoms: _429  and  _430
REMARK  178  A    between atoms: _432  and  _434
REMARK  179  A    between atoms: _434  and  _435
REMARK  180  A    between atoms: _437  and  _439
REMARK  181  A    between atoms: _439  and  _440
REMARK  182  A    between atoms: _439  and  _442
REMARK  183  A    between atoms: _442  and  _443
REMARK  184  A    between atoms: _449  and  _451
REMARK  185  A    between atoms: _451  and  _452
REMARK  186  A    between atoms: _451  and  _454
REMARK  187  A    between atoms: _454  and  _455
REMARK  188  A    between atoms: _458  and  _460
REMARK  189  A    between atoms: _460  and  _461
REMARK  190  A    between atoms: _460  and  _463
REMARK  191  A    between atoms: _463  and  _464
REMARK  192  A    between atoms: _468  and  _469
REMARK  193  A    between atoms: _474  and  _476
REMARK  194  A    between atoms: _476  and  _477
REMARK  195  A    between atoms: _476  and  _479
REMARK  196  A    between atoms: _479  and  _480
REMARK  197  A    between atoms: _484  and  _485
REMARK  198  A    between atoms: _490  and  _492
REMARK  199  A    between atoms: _492  and  _493
REMARK  200  A    between atoms: _496  and  _498
REMARK  201  A    between atoms: _498  and  _499
REMARK  202  A    between atoms: _498  and  _501
REMARK  203  A    between atoms: _501  and  _502
REMARK  204  A    between atoms: _507  and  _509
REMARK  205  A    between atoms: _509  and  _510
REMARK  206  A    between atoms: _509  and  _512
REMARK  207  A    between atoms: _512  and  _513
REMARK  208  A    between atoms: _516  and  _518
REMARK  209  A    between atoms: _518  and  _519
REMARK  210  A    between atoms: _518  and  _521
REMARK  211  A    between atoms: _521  and  _522
REMARK  212  A    between atoms: _525  and  _527
REMARK  213  A    between atoms: _527  and  _528
REMARK  214  A    between atoms: _530  and  _532
REMARK  215  A    between atoms: _532  and  _533
REMARK  216  A    between atoms: _532  and  _535
REMARK  217  A    between atoms: _535  and  _536
REMARK  218  A    between atoms: _536  and  _537
REMARK  219  A    between atoms: _537  and  _538
REMARK                            x       y       z     vdW  Elec       q    Type
REMARK                         _______ _______ _______ _____ _____    ______ ____
ROOT
ATOM      1  C   ILE A   4       7.187  -5.148   8.585  0.00  0.00    +0.241 C 
ATOM      2  O   ILE A   4       6.100  -5.604   8.941  0.00  0.00    -0.273 OA
ATOM      3  N   GLY A   5       7.829  -5.528   7.505  0.00  0.00    -0.295 N 
ATOM      4  H   GLY A   5       8.704  -5.062   7.192  0.00  0.00    +0.150 HD
ENDROOT
BRANCH   3   5
ATOM      5  CA  GLY A   5       7.247  -6.633   6.776  0.00  0.00    +0.176 C 
BRANCH   5   6
ATOM      6  C   GLY A   5       6.413  -6.215   5.609  0.00  0.00    +0.243 C 
ATOM      7  N   GLY A   6       5.976  -4.980   5.568  0.00  0.00    -0.295 N 
ATOM      8  H   GLY A   6       6.139  -4.273   6.313  0.00  0.00    +0.150 HD
ATOM      9  O   GLY A   5       6.156  -7.006   4.733  0.00  0.00    -0.273 OA
BRANCH   7  10
ATOM     10  CA  GLY A   6       5.242  -4.732   4.359  0.00  0.00    +0.176 C 
BRANCH  10  11
ATOM     11  C   GLY A   6       3.940  -4.109   4.672  0.00  0.00    +0.243 C 
ATOM     12  O   GLY A   6       3.798  -3.453   5.699  0.00  0.00    -0.273 OA
ATOM     13  N   PHE A   7       3.031  -4.278   3.730  0.00  0.00    -0.297 N 
ATOM     14  H   PHE A   7       3.196  -4.983   2.984  0.00  0.00    +0.150 HD
BRANCH  13  15
ATOM     15  CA  PHE A   7       1.803  -3.497   3.715  0.00  0.00    +0.153 C 
BRANCH  15  16
ATOM     16  C   PHE A   7       0.643  -4.434   3.826  0.00  0.00    +0.241 C 
ATOM     17  N   ILE A   8      -0.359  -3.970   4.565  0.00  0.00    -0.298 N 
ATOM     18  H   ILE A   8      -0.206  -3.125   5.152  0.00  0.00    +0.150 HD
ATOM     19  O   PHE A   7       0.672  -5.511   3.242  0.00  0.00    -0.273 OA
BRANCH  17  20
ATOM     20  CA  ILE A   8      -1.664  -4.613   4.575  0.00  0.00    +0.137 C 
BRANCH  20  21
ATOM     21  C   ILE A   8      -2.751  -3.702   4.024  0.00  0.00    +0.227 C 
ATOM     22  O   ILE A   8      -2.563  -2.501   3.875  0.00  0.00    -0.286 OA
ENDBRANCH  20  21
BRANCH  20  23
ATOM     23  CB  ILE A   8      -2.005  -5.098   6.005  0.00  0.00    +0.026 C 
ATOM     24  CG2 ILE A   8      -0.868  -5.925   6.591  0.00  0.00    +0.002 C 
BRANCH  23  25
ATOM     25  CG1 ILE A   8      -2.329  -4.043   7.024  0.00  0.00    +0.002 C 
ATOM     26  CD1 ILE A   8      -2.778  -4.729   8.319  0.00  0.00    +0.000 C 
ENDBRANCH  23  25
ENDBRANCH  20  23
ENDBRANCH  17  20
ENDBRANCH  15  16
BRANCH  15  27
ATOM     27  CB  PHE A   7       1.601  -2.746   2.382  0.00  0.00    +0.055 C 
BRANCH  27  28
ATOM     28  CG  PHE A   7       2.559  -1.598   2.179  0.00  0.00    -0.020 A 
ATOM     29  CD2 PHE A   7       2.173  -0.316   2.515  0.00  0.00    -0.004 A 
ATOM     30  CE2 PHE A   7       3.070   0.743   2.384  0.00  0.00    -0.000 A 
ATOM     31  CZ  PHE A   7       4.356   0.527   1.907  0.00  0.00    -0.000 A 
ATOM     32  CE1 PHE A   7       4.738  -0.760   1.566  0.00  0.00    -0.000 A 
ATOM     33  CD1 PHE A   7       3.835  -1.810   1.687  0.00  0.00    -0.004 A 
ENDBRANCH  27  28
ENDBRANCH  15  27
ENDBRANCH  13  15
ENDBRANCH  10  11
ENDBRANCH   7  10
ENDBRANCH   5   6
ENDBRANCH   3   5
BRANCH   1  34
ATOM     34  CA  ILE A   4       7.869  -4.028   9.339  0.00  0.00    +0.149 C 
BRANCH  34  36
ATOM     35  C   GLY A   3       6.234  -2.409   8.528  0.00  0.00    +0.243 C 
ATOM     36  N   ILE A   4       6.853  -3.001   9.541  0.00  0.00    -0.297 N 
ATOM     37  H   ILE A   4       6.605  -2.723  10.512  0.00  0.00    +0.150 HD
ATOM     38  O   GLY A   3       6.531  -2.580   7.361  0.00  0.00    -0.273 OA
BRANCH  35  39
ATOM     39  CA  GLY A   3       5.084  -1.532   8.889  0.00  0.00    +0.176 C 
BRANCH  39  42
ATOM     40  C   GLY A   2       3.412  -0.513   7.588  0.00  0.00    +0.243 C 
ATOM     41  O   GLY A   2       3.288   0.387   8.402  0.00  0.00    -0.273 OA
ATOM     42  N   GLY A   3       4.250  -1.516   7.724  0.00  0.00    -0.295 N 
ATOM     43  H   GLY A   3       4.306  -2.271   7.011  0.00  0.00    +0.150 HD
BRANCH  40  44
ATOM     44  CA  GLY A   2       2.594  -0.567   6.329  0.00  0.00    +0.176 C 
BRANCH  44  46
ATOM     45  C   ILE A   1       0.304  -0.234   5.794  0.00  0.00    +0.238 C 
ATOM     46  N   GLY A   2       1.415   0.284   6.282  0.00  0.00    -0.296 N 
ATOM     47  H   GLY A   2       1.447   1.267   6.621  0.00  0.00    +0.150 HD
ATOM     48  O   ILE A   1       0.188  -1.402   5.479  0.00  0.00    -0.274 OA
BRANCH  45  49
ATOM     49  CA  ILE A   1      -0.857   0.703   5.652  0.00  0.00    +0.145 C 
BRANCH  49  50
ATOM     50  N   ILE A   1      -1.832   0.174   4.685  0.00  0.00    -0.238 NA
ATOM     51  H   ILE A   1      -2.144  -0.817   4.740  0.00  0.00    +0.142 HD
ENDBRANCH  49  50
BRANCH  49  52
ATOM     52  CB  ILE A   1      -1.461   0.946   7.063  0.00  0.00    +0.025 C 
ATOM     53  CG2 ILE A   1      -2.143   2.278   7.221  0.00  0.00    +0.002 C 
BRANCH  52  54
ATOM     54  CG1 ILE A   1      -2.396  -0.086   7.574  0.00  0.00    +0.002 C 
ATOM     55  CD1 ILE A   1      -1.649  -0.796   8.678  0.00  0.00    +0.000 C 
ENDBRANCH  52  54
ENDBRANCH  49  52
ENDBRANCH  45  49
ENDBRANCH  44  46
ENDBRANCH  40  44
ENDBRANCH  39  42
ENDBRANCH  35  39
ENDBRANCH  34  36
BRANCH  34  56
ATOM     56  CB  ILE A   4       8.321  -4.560  10.720  0.00  0.00    +0.027 C 
ATOM     57  CG2 ILE A   4       9.102  -5.861  10.610  0.00  0.00    +0.002 C 
BRANCH  56  58
ATOM     58  CG1 ILE A   4       9.109  -3.635  11.630  0.00  0.00    +0.002 C 
ATOM     59  CD1 ILE A   4      10.593  -3.444  11.273  0.00  0.00    +0.000 C 
ENDBRANCH  56  58
ENDBRANCH  34  56
ENDBRANCH   1  34
TORSDOF 24
REMARK  Name = ../refined-set-2016/1hvs/1hvs_pocket.pdb
REMARK  219 active torsions:
REMARK  status: ('A' for Active; 'I' for Inactive)
REMARK    1  A    between atoms: _1  and  _3
REMARK    2  A    between atoms: _3  and  _4
REMARK    3  A    between atoms: _3  and  _6
REMARK    4  A    between atoms: _6  and  _7
REMARK    5  A    between atoms: _7  and  _8
REMARK    6  A    between atoms: _8  and  _9
REMARK    7  A    between atoms: _19  and  _20
REMARK    8  A    between atoms: _25  and  _27
REMARK    9  A    between atoms: _27  and  _28
REMARK   10  A    between atoms: _27  and  _30
REMARK   11  A    between atoms: _30  and  _31
REMARK   12  A    between atoms: _34  and  _36
REMARK   13  A    between atoms: _36  and  _37
REMARK   14  A    between atoms: _36  and  _39
REMARK   15  A    between atoms: _39  and  _40
REMARK   16  A    between atoms: _43  and  _45
REMARK   17  A    between atoms: _45  and  _46
REMARK   18  A    between atoms: _45  and  _48
REMARK   19  A    between atoms: _48  and  _49
REMARK   20  A    between atoms: _52  and  _54
REMARK   21  A    between atoms: _54  and  _55
REMARK   22  A    between atoms: _54  and  _57
REMARK   23  A    between atoms: _57  and  _58
REMARK   24  A    between atoms: _61  and  _63
REMARK   25  A    between atoms: _63  and  _64
REMARK   26  A    between atoms: _63  and  _66
REMARK   27  A    between atoms: _66  and  _67
REMARK   28  A    between atoms: _70  and  _72
REMARK   29  A    between atoms: _72  and  _73
REMARK   30  A    between atoms: _75  and  _77
REMARK   31  A    between atoms: _77  and  _78
REMARK   32  A    between atoms: _81  and  _83
REMARK   33  A    between atoms: _83  and  _84
REMARK   34  A    between atoms: _83  and  _86
REMARK   35  A    between atoms: _86  and  _87
REMARK   36  A    between atoms: _90  and  _92
REMARK   37  A    between atoms: _92  and  _93
REMARK   38  A    between atoms: _92  and  _95
REMARK   39  A    between atoms: _95  and  _96
REMARK   40  A    between atoms: _99  and  _101
REMARK   41  A    between atoms: _101  and  _102
REMARK   42  A    between atoms: _101  and  _104
REMARK   43  A    between atoms: _104  and  _105
REMARK   44  A    between atoms: _108  and  _110
REMARK   45  A    between atoms: _110  and  _111
REMARK   46  A    between atoms: _110  and  _113
REMARK   47  A    between atoms: _116  and  _118
REMARK   48  A    between atoms: _118  and  _119
REMARK   49  A    between atoms: _118  and  _121
REMARK   50  A    between atoms: _121  and  _122
REMARK   51  A    between atoms: _122  and  _123
REMARK   52  A    between atoms: _123  and  _124
REMARK   53  A    between atoms: _124  and  _125
REMARK   54  A    between atoms: _129  and  _131
REMARK   55  A    between atoms: _131  and  _132
REMARK   56  A    between atoms: _131  and  _134
REMARK   57  A    between atoms: _134  and  _135
REMARK   58  A    between atoms: _138  and  _140
REMARK   59  A    between atoms: _140  and  _141
REMARK   60  A    between atoms: _143  and  _145
REMARK   61  A    between atoms: _145  and  _146
REMARK   62  A    between atoms: _148  and  _150
REMARK   63  A    between atoms: _150  and  _151
REMARK   64  A    between atoms: _150  and  _153
REMARK   65  A    between atoms: _153  and  _154
REMARK   66  A    between atoms: _157  and  _159
REMARK   67  A    between atoms: _159  and  _160
REMARK   68  A    between atoms: _162  and  _164
REMARK   69  A    between atoms: _164  and  _165
REMARK   70  A    between atoms: _167  and  _169
REMARK   71  A    between atoms: _169  and  _170
REMARK   72  A    between atoms: _169  and  _172
REMARK   73  A    between atoms: _172  and  _173
REMARK   74  A    between atoms: _179  and  _181
REMARK   75  A    between atoms: _181  and  _182
REMARK   76  A    between atoms: _181  and  _184
REMARK   77  A    between atoms: _184  and  _185
REMARK   78  A    between atoms: _188  and  _190
REMARK   79  A    between atoms: _190  and  _191
REMARK   80  A    between atoms: _190  and  _193
REMARK   81  A    between atoms: _196  and  _198
REMARK   82  A    between atoms: _198  and  _199
REMARK   83  A    between atoms: _198  and  _201
REMARK   84  A    between atoms: _201  and  _202
REMARK   85  A    between atoms: _205  and  _207
REMARK   86  A    between atoms: _207  and  _208
REMARK   87  A    between atoms: _207  and  _210
REMARK   88  A    between atoms: _210  and  _211
REMARK   89  A    between atoms: _215  and  _216
REMARK   90  A    between atoms: _221  and  _223
REMARK   91  A    between atoms: _223  and  _224
REMARK   92  A    between atoms: _227  and  _229
REMARK   93  A    between atoms: _229  and  _230
REMARK   94  A    between atoms: _229  and  _232
REMARK   95  A    between atoms: _232  and  _233
REMARK   96  A    between atoms: _238  and  _240
REMARK   97  A    between atoms: _240  and  _241
REMARK   98  A    between atoms: _240  and  _243
REMARK   99  A    between atoms: _243  and  _244
REMARK  100  A    between atoms: _247  and  _249
REMARK  101  A    between atoms: _249  and  _250
REMARK  102  A    between atoms: _249  and  _252
REMARK  103  A    between atoms: _252  and  _253
REMARK  104  A    between atoms: _256  and  _258
REMARK  105  A    between atoms: _258  and  _259
REMARK  106  A    between atoms: _261  and  _263
REMARK  107  A    between atoms: _263  and  _264
REMARK  108  A    between atoms: _263  and  _266
REMARK  109  A    between atoms: _266  and  _267
REMARK  110  A    between atoms: _267  and  _268
REMARK  111  A    between atoms: _268  and  _269
REMARK  112  A    between atoms: _278  and  _280
REMARK  113  A    between atoms: _280  and  _281
REMARK  114  A    between atoms: _280  and  _283
REMARK  115  A    between atoms: _283  and  _284
REMARK  116  A    between atoms: _284  and  _285
REMARK  117  A    between atoms: _285  and  _286
REMARK  118  A    between atoms: _295  and  _297
REMARK  119  A    between atoms: _297  and  _298
REMARK  120  A    between atoms: _297  and  _300
REMARK  121  A    between atoms: _300  and  _301
REMARK  122  A    between atoms: _304  and  _306
REMARK  123  A    between atoms: _306  and  _307
REMARK  124  A    between atoms: _306  and  _309
REMARK  125  A    between atoms: _309  and  _310
REMARK  126  A    between atoms: _313  and  _315
REMARK  127  A    between atoms: _315  and  _316
REMARK  128  A    between atoms: _315  and  _318
REMARK  129  A    between atoms: _318  and  _319
REMARK  130  A    between atoms: _322  and  _324
REMARK  131  A    between atoms: _324  and  _325
REMARK  132  A    between atoms: _324  and  _327
REMARK  133  A    between atoms: _327  and  _328
REMARK  134  A    between atoms: _331  and  _333
REMARK  135  A    between atoms: _333  and  _334
REMARK  136  A    between atoms: _333  and  _336
REMARK  137  A    between atoms: _336  and  _337
REMARK  138  A    between atoms: _340  and  _342
REMARK  139  A    between atoms: _342  and  _343
REMARK  140  A    between atoms: _345  and  _347
REMARK  141  A    between atoms: _347  and  _348
REMARK  142  A    between atoms: _351  and  _353
REMARK  143  A    between atoms: _353  and  _354
REMARK  144  A    between atoms: _353  and  _356
REMARK  145  A    between atoms: _356  and  _357
REMARK  146  A    between atoms: _360  and  _362
REMARK  147  A    between atoms: _362  and  _363
REMARK  148  A    between atoms: _362  and  _365
REMARK  149  A    between atoms: _365  and  _366
REMARK  150  A    between atoms: _369  and  _371
REMARK  151  A    between atoms: _371  and  _372
REMARK  152  A    between atoms: _371  and  _374
REMARK  153  A    between atoms: _374  and  _375
REMARK  154  A    between atoms: _378  and  _380
REMARK  155  A    between atoms: _380  and  _381
REMARK  156  A    between atoms: _380  and  _383
REMARK  157  A    between atoms: _386  and  _388
REMARK  158  A    between atoms: _388  and  _389
REMARK  159  A    between atoms: _388  and  _391
REMARK  160  A    between atoms: _391  and  _392
REMARK  161  A    between atoms: _392  and  _393
REMARK  162  A    between atoms: _393  and  _394
REMARK  163  A    between atoms: _394  and  _395
REMARK  164  A    between atoms: _399  and  _401
REMARK  165  A    between atoms: _401  and  _402
REMARK  166  A    between atoms: _401  and  _404
REMARK  167  A    between atoms: _404  and  _405
REMARK  168  A    between atoms: _408  and  _410
REMARK  169  A    between atoms: _410  and  _411
REMARK  170  A    between atoms: _413  and  _415
REMARK  171  A    between atoms: _415  and  _416
REMARK  172  A    between atoms: _418  and  _420
REMARK  173  A    between atoms: _420  and  _421
REMARK  174  A    between atoms: _420  and  _423
REMARK  175  A    between atoms: _423  and  _424
REMARK  176  A    between atoms: _427  and  _429
REMARK  177  A    between atoms: _429  and  _430
REMARK  178  A    between atoms: _432  and  _434
REMARK  179  A    between atoms: _434  and  _435
REMARK  180  A    between atoms: _437  and  _439
REMARK  181  A    between atoms: _439  and  _440
REMARK  182  A    between atoms: _439  and  _442
REMARK  183  A    between atoms: _442  and  _443
REMARK  184  A    between atoms: _449  and  _451
REMARK  185  A    between atoms: _451  and  _452
REMARK  186  A    between atoms: _451  and  _454
REMARK  187  A    between atoms: _454  and  _455
REMARK  188  A    between atoms: _458  and  _460
REMARK  189  A    between atoms: _460  and  _461
REMARK  190  A    between atoms: _460  and  _463
REMARK  191  A    between atoms: _463  and  _464
REMARK  192  A    between atoms: _468  and  _469
REMARK  193  A    between atoms: _474  and  _476
REMARK  194  A    between atoms: _476  and  _477
REMARK  195  A    between atoms: _476  and  _479
REMARK  196  A    between atoms: _479  and  _480
REMARK  197  A    between atoms: _484  and  _485
REMARK  198  A    between atoms: _490  and  _492
REMARK  199  A    between atoms: _492  and  _493
REMARK  200  A    between atoms: _496  and  _498
REMARK  201  A    between atoms: _498  and  _499
REMARK  202  A    between atoms: _498  and  _501
REMARK  203  A    between atoms: _501  and  _502
REMARK  204  A    between atoms: _507  and  _509
REMARK  205  A    between atoms: _509  and  _510
REMARK  206  A    between atoms: _509  and  _512
REMARK  207  A    between atoms: _512  and  _513
REMARK  208  A    between atoms: _516  and  _518
REMARK  209  A    between atoms: _518  and  _519
REMARK  210  A    between atoms: _518  and  _521
REMARK  211  A    between atoms: _521  and  _522
REMARK  212  A    between atoms: _525  and  _527
REMARK  213  A    between atoms: _527  and  _528
REMARK  214  A    between atoms: _530  and  _532
REMARK  215  A    between atoms: _532  and  _533
REMARK  216  A    between atoms: _532  and  _535
REMARK  217  A    between atoms: _535  and  _536
REMARK  218  A    between atoms: _536  and  _537
REMARK  219  A    between atoms: _537  and  _538
REMARK                            x       y       z     vdW  Elec       q    Type
REMARK                         _______ _______ _______ _____ _____    ______ ____
ROOT
ATOM      1  CA  VAL A   1      -7.338  -2.006   5.779  0.00  0.00    +0.133 C 
ENDROOT
BRANCH   1   2
ATOM      2  CB  VAL A   1      -6.526  -1.148   6.797  0.00  0.00    +0.023 C 
ATOM      3  CG2 VAL A   1      -5.448  -2.007   7.398  0.00  0.00    +0.002 C 
ATOM      4  CG1 VAL A   1      -5.846   0.089   6.249  0.00  0.00    +0.002 C 
ENDBRANCH   1   2
BRANCH   1   5
ATOM      5  N   VAL A   1      -6.550  -2.281   4.594  0.00  0.00    -0.239 NA
ATOM      6  H   VAL A   1      -6.392  -1.533   3.889  0.00  0.00    +0.142 HD
ENDBRANCH   1   5
BRANCH   1   7
ATOM      7  C   VAL A   1      -8.574  -1.329   5.282  0.00  0.00    +0.224 C 
ATOM      8  O   VAL A   1      -8.564  -0.828   4.180  0.00  0.00    -0.287 OA
ENDBRANCH   1   7
TORSDOF 3
REMARK  Name = ../refined-set-2016/1hvs/1hvs_pocket.pdb
REMARK  219 active torsions:
REMARK  status: ('A' for Active; 'I' for Inactive)
REMARK    1  A    between atoms: _1  and  _3
REMARK    2  A    between atoms: _3  and  _4
REMARK    3  A    between atoms: _3  and  _6
REMARK    4  A    between atoms: _6  and  _7
REMARK    5  A    between atoms: _7  and  _8
REMARK    6  A    between atoms: _8  and  _9
REMARK    7  A    between atoms: _19  and  _20
REMARK    8  A    between atoms: _25  and  _27
REMARK    9  A    between atoms: _27  and  _28
REMARK   10  A    between atoms: _27  and  _30
REMARK   11  A    between atoms: _30  and  _31
REMARK   12  A    between atoms: _34  and  _36
REMARK   13  A    between atoms: _36  and  _37
REMARK   14  A    between atoms: _36  and  _39
REMARK   15  A    between atoms: _39  and  _40
REMARK   16  A    between atoms: _43  and  _45
REMARK   17  A    between atoms: _45  and  _46
REMARK   18  A    between atoms: _45  and  _48
REMARK   19  A    between atoms: _48  and  _49
REMARK   20  A    between atoms: _52  and  _54
REMARK   21  A    between atoms: _54  and  _55
REMARK   22  A    between atoms: _54  and  _57
REMARK   23  A    between atoms: _57  and  _58
REMARK   24  A    between atoms: _61  and  _63
REMARK   25  A    between atoms: _63  and  _64
REMARK   26  A    between atoms: _63  and  _66
REMARK   27  A    between atoms: _66  and  _67
REMARK   28  A    between atoms: _70  and  _72
REMARK   29  A    between atoms: _72  and  _73
REMARK   30  A    between atoms: _75  and  _77
REMARK   31  A    between atoms: _77  and  _78
REMARK   32  A    between atoms: _81  and  _83
REMARK   33  A    between atoms: _83  and  _84
REMARK   34  A    between atoms: _83  and  _86
REMARK   35  A    between atoms: _86  and  _87
REMARK   36  A    between atoms: _90  and  _92
REMARK   37  A    between atoms: _92  and  _93
REMARK   38  A    between atoms: _92  and  _95
REMARK   39  A    between atoms: _95  and  _96
REMARK   40  A    between atoms: _99  and  _101
REMARK   41  A    between atoms: _101  and  _102
REMARK   42  A    between atoms: _101  and  _104
REMARK   43  A    between atoms: _104  and  _105
REMARK   44  A    between atoms: _108  and  _110
REMARK   45  A    between atoms: _110  and  _111
REMARK   46  A    between atoms: _110  and  _113
REMARK   47  A    between atoms: _116  and  _118
REMARK   48  A    between atoms: _118  and  _119
REMARK   49  A    between atoms: _118  and  _121
REMARK   50  A    between atoms: _121  and  _122
REMARK   51  A    between atoms: _122  and  _123
REMARK   52  A    between atoms: _123  and  _124
REMARK   53  A    between atoms: _124  and  _125
REMARK   54  A    between atoms: _129  and  _131
REMARK   55  A    between atoms: _131  and  _132
REMARK   56  A    between atoms: _131  and  _134
REMARK   57  A    between atoms: _134  and  _135
REMARK   58  A    between atoms: _138  and  _140
REMARK   59  A    between atoms: _140  and  _141
REMARK   60  A    between atoms: _143  and  _145
REMARK   61  A    between atoms: _145  and  _146
REMARK   62  A    between atoms: _148  and  _150
REMARK   63  A    between atoms: _150  and  _151
REMARK   64  A    between atoms: _150  and  _153
REMARK   65  A    between atoms: _153  and  _154
REMARK   66  A    between atoms: _157  and  _159
REMARK   67  A    between atoms: _159  and  _160
REMARK   68  A    between atoms: _162  and  _164
REMARK   69  A    between atoms: _164  and  _165
REMARK   70  A    between atoms: _167  and  _169
REMARK   71  A    between atoms: _169  and  _170
REMARK   72  A    between atoms: _169  and  _172
REMARK   73  A    between atoms: _172  and  _173
REMARK   74  A    between atoms: _179  and  _181
REMARK   75  A    between atoms: _181  and  _182
REMARK   76  A    between atoms: _181  and  _184
REMARK   77  A    between atoms: _184  and  _185
REMARK   78  A    between atoms: _188  and  _190
REMARK   79  A    between atoms: _190  and  _191
REMARK   80  A    between atoms: _190  and  _193
REMARK   81  A    between atoms: _196  and  _198
REMARK   82  A    between atoms: _198  and  _199
REMARK   83  A    between atoms: _198  and  _201
REMARK   84  A    between atoms: _201  and  _202
REMARK   85  A    between atoms: _205  and  _207
REMARK   86  A    between atoms: _207  and  _208
REMARK   87  A    between atoms: _207  and  _210
REMARK   88  A    between atoms: _210  and  _211
REMARK   89  A    between atoms: _215  and  _216
REMARK   90  A    between atoms: _221  and  _223
REMARK   91  A    between atoms: _223  and  _224
REMARK   92  A    between atoms: _227  and  _229
REMARK   93  A    between atoms: _229  and  _230
REMARK   94  A    between atoms: _229  and  _232
REMARK   95  A    between atoms: _232  and  _233
REMARK   96  A    between atoms: _238  and  _240
REMARK   97  A    between atoms: _240  and  _241
REMARK   98  A    between atoms: _240  and  _243
REMARK   99  A    between atoms: _243  and  _244
REMARK  100  A    between atoms: _247  and  _249
REMARK  101  A    between atoms: _249  and  _250
REMARK  102  A    between atoms: _249  and  _252
REMARK  103  A    between atoms: _252  and  _253
REMARK  104  A    between atoms: _256  and  _258
REMARK  105  A    between atoms: _258  and  _259
REMARK  106  A    between atoms: _261  and  _263
REMARK  107  A    between atoms: _263  and  _264
REMARK  108  A    between atoms: _263  and  _266
REMARK  109  A    between atoms: _266  and  _267
REMARK  110  A    between atoms: _267  and  _268
REMARK  111  A    between atoms: _268  and  _269
REMARK  112  A    between atoms: _278  and  _280
REMARK  113  A    between atoms: _280  and  _281
REMARK  114  A    between atoms: _280  and  _283
REMARK  115  A    between atoms: _283  and  _284
REMARK  116  A    between atoms: _284  and  _285
REMARK  117  A    between atoms: _285  and  _286
REMARK  118  A    between atoms: _295  and  _297
REMARK  119  A    between atoms: _297  and  _298
REMARK  120  A    between atoms: _297  and  _300
REMARK  121  A    between atoms: _300  and  _301
REMARK  122  A    between atoms: _304  and  _306
REMARK  123  A    between atoms: _306  and  _307
REMARK  124  A    between atoms: _306  and  _309
REMARK  125  A    between atoms: _309  and  _310
REMARK  126  A    between atoms: _313  and  _315
REMARK  127  A    between atoms: _315  and  _316
REMARK  128  A    between atoms: _315  and  _318
REMARK  129  A    between atoms: _318  and  _319
REMARK  130  A    between atoms: _322  and  _324
REMARK  131  A    between atoms: _324  and  _325
REMARK  132  A    between atoms: _324  and  _327
REMARK  133  A    between atoms: _327  and  _328
REMARK  134  A    between atoms: _331  and  _333
REMARK  135  A    between atoms: _333  and  _334
REMARK  136  A    between atoms: _333  and  _336
REMARK  137  A    between atoms: _336  and  _337
REMARK  138  A    between atoms: _340  and  _342
REMARK  139  A    between atoms: _342  and  _343
REMARK  140  A    between atoms: _345  and  _347
REMARK  141  A    between atoms: _347  and  _348
REMARK  142  A    between atoms: _351  and  _353
REMARK  143  A    between atoms: _353  and  _354
REMARK  144  A    between atoms: _353  and  _356
REMARK  145  A    between atoms: _356  and  _357
REMARK  146  A    between atoms: _360  and  _362
REMARK  147  A    between atoms: _362  and  _363
REMARK  148  A    between atoms: _362  and  _365
REMARK  149  A    between atoms: _365  and  _366
REMARK  150  A    between atoms: _369  and  _371
REMARK  151  A    between atoms: _371  and  _372
REMARK  152  A    between atoms: _371  and  _374
REMARK  153  A    between atoms: _374  and  _375
REMARK  154  A    between atoms: _378  and  _380
REMARK  155  A    between atoms: _380  and  _381
REMARK  156  A    between atoms: _380  and  _383
REMARK  157  A    between atoms: _386  and  _388
REMARK  158  A    between atoms: _388  and  _389
REMARK  159  A    between atoms: _388  and  _391
REMARK  160  A    between atoms: _391  and  _392
REMARK  161  A    between atoms: _392  and  _393
REMARK  162  A    between atoms: _393  and  _394
REMARK  163  A    between atoms: _394  and  _395
REMARK  164  A    between atoms: _399  and  _401
REMARK  165  A    between atoms: _401  and  _402
REMARK  166  A    between atoms: _401  and  _404
REMARK  167  A    between atoms: _404  and  _405
REMARK  168  A    between atoms: _408  and  _410
REMARK  169  A    between atoms: _410  and  _411
REMARK  170  A    between atoms: _413  and  _415
REMARK  171  A    between atoms: _415  and  _416
REMARK  172  A    between atoms: _418  and  _420
REMARK  173  A    between atoms: _420  and  _421
REMARK  174  A    between atoms: _420  and  _423
REMARK  175  A    between atoms: _423  and  _424
REMARK  176  A    between atoms: _427  and  _429
REMARK  177  A    between atoms: _429  and  _430
REMARK  178  A    between atoms: _432  and  _434
REMARK  179  A    between atoms: _434  and  _435
REMARK  180  A    between atoms: _437  and  _439
REMARK  181  A    between atoms: _439  and  _440
REMARK  182  A    between atoms: _439  and  _442
REMARK  183  A    between atoms: _442  and  _443
REMARK  184  A    between atoms: _449  and  _451
REMARK  185  A    between atoms: _451  and  _452
REMARK  186  A    between atoms: _451  and  _454
REMARK  187  A    between atoms: _454  and  _455
REMARK  188  A    between atoms: _458  and  _460
REMARK  189  A    between atoms: _460  and  _461
REMARK  190  A    between atoms: _460  and  _463
REMARK  191  A    between atoms: _463  and  _464
REMARK  192  A    between atoms: _468  and  _469
REMARK  193  A    between atoms: _474  and  _476
REMARK  194  A    between atoms: _476  and  _477
REMARK  195  A    between atoms: _476  and  _479
REMARK  196  A    between atoms: _479  and  _480
REMARK  197  A    between atoms: _484  and  _485
REMARK  198  A    between atoms: _490  and  _492
REMARK  199  A    between atoms: _492  and  _493
REMARK  200  A    between atoms: _496  and  _498
REMARK  201  A    between atoms: _498  and  _499
REMARK  202  A    between atoms: _498  and  _501
REMARK  203  A    between atoms: _501  and  _502
REMARK  204  A    between atoms: _507  and  _509
REMARK  205  A    between atoms: _509  and  _510
REMARK  206  A    between atoms: _509  and  _512
REMARK  207  A    between atoms: _512  and  _513
REMARK  208  A    between atoms: _516  and  _518
REMARK  209  A    between atoms: _518  and  _519
REMARK  210  A    between atoms: _518  and  _521
REMARK  211  A    between atoms: _521  and  _522
REMARK  212  A    between atoms: _525  and  _527
REMARK  213  A    between atoms: _527  and  _528
REMARK  214  A    between atoms: _530  and  _532
REMARK  215  A    between atoms: _532  and  _533
REMARK  216  A    between atoms: _532  and  _535
REMARK  217  A    between atoms: _535  and  _536
REMARK  218  A    between atoms: _536  and  _537
REMARK  219  A    between atoms: _537  and  _538
REMARK                            x       y       z     vdW  Elec       q    Type
REMARK                         _______ _______ _______ _____ _____    ______ ____
ROOT
ATOM      1  CA  LEU A   1      -8.347   1.446  10.412  0.00  0.00    +0.133 C 
ENDROOT
BRANCH   1   2
ATOM      2  N   LEU A   1      -8.536   2.435  11.469  0.00  0.00    -0.239 NA
ATOM      3  H   LEU A   1      -7.753   2.633  12.124  0.00  0.00    +0.142 HD
ENDBRANCH   1   2
BRANCH   1   4
ATOM      4  C   LEU A   1      -8.568   0.004  10.871  0.00  0.00    +0.224 C 
ATOM      5  O   LEU A   1      -8.008  -0.438  11.856  0.00  0.00    -0.287 OA
ENDBRANCH   1   4
BRANCH   1   6
ATOM      6  CB  LEU A   1      -6.921   1.541   9.924  0.00  0.00    +0.025 C 
BRANCH   6   7
ATOM      7  CG  LEU A   1      -6.424   2.914   9.516  0.00  0.00    +0.002 C 
ATOM      8  CD2 LEU A   1      -5.003   2.803   9.143  0.00  0.00    +0.000 C 
ATOM      9  CD1 LEU A   1      -7.118   3.448   8.316  0.00  0.00    +0.000 C 
ENDBRANCH   6   7
ENDBRANCH   1   6
TORSDOF 4
REMARK  Name = ../refined-set-2016/1hvs/1hvs_pocket.pdb
REMARK  219 active torsions:
REMARK  status: ('A' for Active; 'I' for Inactive)
REMARK    1  A    between atoms: _1  and  _3
REMARK    2  A    between atoms: _3  and  _4
REMARK    3  A    between atoms: _3  and  _6
REMARK    4  A    between atoms: _6  and  _7
REMARK    5  A    between atoms: _7  and  _8
REMARK    6  A    between atoms: _8  and  _9
REMARK    7  A    between atoms: _19  and  _20
REMARK    8  A    between atoms: _25  and  _27
REMARK    9  A    between atoms: _27  and  _28
REMARK   10  A    between atoms: _27  and  _30
REMARK   11  A    between atoms: _30  and  _31
REMARK   12  A    between atoms: _34  and  _36
REMARK   13  A    between atoms: _36  and  _37
REMARK   14  A    between atoms: _36  and  _39
REMARK   15  A    between atoms: _39  and  _40
REMARK   16  A    between atoms: _43  and  _45
REMARK   17  A    between atoms: _45  and  _46
REMARK   18  A    between atoms: _45  and  _48
REMARK   19  A    between atoms: _48  and  _49
REMARK   20  A    between atoms: _52  and  _54
REMARK   21  A    between atoms: _54  and  _55
REMARK   22  A    between atoms: _54  and  _57
REMARK   23  A    between atoms: _57  and  _58
REMARK   24  A    between atoms: _61  and  _63
REMARK   25  A    between atoms: _63  and  _64
REMARK   26  A    between atoms: _63  and  _66
REMARK   27  A    between atoms: _66  and  _67
REMARK   28  A    between atoms: _70  and  _72
REMARK   29  A    between atoms: _72  and  _73
REMARK   30  A    between atoms: _75  and  _77
REMARK   31  A    between atoms: _77  and  _78
REMARK   32  A    between atoms: _81  and  _83
REMARK   33  A    between atoms: _83  and  _84
REMARK   34  A    between atoms: _83  and  _86
REMARK   35  A    between atoms: _86  and  _87
REMARK   36  A    between atoms: _90  and  _92
REMARK   37  A    between atoms: _92  and  _93
REMARK   38  A    between atoms: _92  and  _95
REMARK   39  A    between atoms: _95  and  _96
REMARK   40  A    between atoms: _99  and  _101
REMARK   41  A    between atoms: _101  and  _102
REMARK   42  A    between atoms: _101  and  _104
REMARK   43  A    between atoms: _104  and  _105
REMARK   44  A    between atoms: _108  and  _110
REMARK   45  A    between atoms: _110  and  _111
REMARK   46  A    between atoms: _110  and  _113
REMARK   47  A    between atoms: _116  and  _118
REMARK   48  A    between atoms: _118  and  _119
REMARK   49  A    between atoms: _118  and  _121
REMARK   50  A    between atoms: _121  and  _122
REMARK   51  A    between atoms: _122  and  _123
REMARK   52  A    between atoms: _123  and  _124
REMARK   53  A    between atoms: _124  and  _125
REMARK   54  A    between atoms: _129  and  _131
REMARK   55  A    between atoms: _131  and  _132
REMARK   56  A    between atoms: _131  and  _134
REMARK   57  A    between atoms: _134  and  _135
REMARK   58  A    between atoms: _138  and  _140
REMARK   59  A    between atoms: _140  and  _141
REMARK   60  A    between atoms: _143  and  _145
REMARK   61  A    between atoms: _145  and  _146
REMARK   62  A    between atoms: _148  and  _150
REMARK   63  A    between atoms: _150  and  _151
REMARK   64  A    between atoms: _150  and  _153
REMARK   65  A    between atoms: _153  and  _154
REMARK   66  A    between atoms: _157  and  _159
REMARK   67  A    between atoms: _159  and  _160
REMARK   68  A    between atoms: _162  and  _164
REMARK   69  A    between atoms: _164  and  _165
REMARK   70  A    between atoms: _167  and  _169
REMARK   71  A    between atoms: _169  and  _170
REMARK   72  A    between atoms: _169  and  _172
REMARK   73  A    between atoms: _172  and  _173
REMARK   74  A    between atoms: _179  and  _181
REMARK   75  A    between atoms: _181  and  _182
REMARK   76  A    between atoms: _181  and  _184
REMARK   77  A    between atoms: _184  and  _185
REMARK   78  A    between atoms: _188  and  _190
REMARK   79  A    between atoms: _190  and  _191
REMARK   80  A    between atoms: _190  and  _193
REMARK   81  A    between atoms: _196  and  _198
REMARK   82  A    between atoms: _198  and  _199
REMARK   83  A    between atoms: _198  and  _201
REMARK   84  A    between atoms: _201  and  _202
REMARK   85  A    between atoms: _205  and  _207
REMARK   86  A    between atoms: _207  and  _208
REMARK   87  A    between atoms: _207  and  _210
REMARK   88  A    between atoms: _210  and  _211
REMARK   89  A    between atoms: _215  and  _216
REMARK   90  A    between atoms: _221  and  _223
REMARK   91  A    between atoms: _223  and  _224
REMARK   92  A    between atoms: _227  and  _229
REMARK   93  A    between atoms: _229  and  _230
REMARK   94  A    between atoms: _229  and  _232
REMARK   95  A    between atoms: _232  and  _233
REMARK   96  A    between atoms: _238  and  _240
REMARK   97  A    between atoms: _240  and  _241
REMARK   98  A    between atoms: _240  and  _243
REMARK   99  A    between atoms: _243  and  _244
REMARK  100  A    between atoms: _247  and  _249
REMARK  101  A    between atoms: _249  and  _250
REMARK  102  A    between atoms: _249  and  _252
REMARK  103  A    between atoms: _252  and  _253
REMARK  104  A    between atoms: _256  and  _258
REMARK  105  A    between atoms: _258  and  _259
REMARK  106  A    between atoms: _261  and  _263
REMARK  107  A    between atoms: _263  and  _264
REMARK  108  A    between atoms: _263  and  _266
REMARK  109  A    between atoms: _266  and  _267
REMARK  110  A    between atoms: _267  and  _268
REMARK  111  A    between atoms: _268  and  _269
REMARK  112  A    between atoms: _278  and  _280
REMARK  113  A    between atoms: _280  and  _281
REMARK  114  A    between atoms: _280  and  _283
REMARK  115  A    between atoms: _283  and  _284
REMARK  116  A    between atoms: _284  and  _285
REMARK  117  A    between atoms: _285  and  _286
REMARK  118  A    between atoms: _295  and  _297
REMARK  119  A    between atoms: _297  and  _298
REMARK  120  A    between atoms: _297  and  _300
REMARK  121  A    between atoms: _300  and  _301
REMARK  122  A    between atoms: _304  and  _306
REMARK  123  A    between atoms: _306  and  _307
REMARK  124  A    between atoms: _306  and  _309
REMARK  125  A    between atoms: _309  and  _310
REMARK  126  A    between atoms: _313  and  _315
REMARK  127  A    between atoms: _315  and  _316
REMARK  128  A    between atoms: _315  and  _318
REMARK  129  A    between atoms: _318  and  _319
REMARK  130  A    between atoms: _322  and  _324
REMARK  131  A    between atoms: _324  and  _325
REMARK  132  A    between atoms: _324  and  _327
REMARK  133  A    between atoms: _327  and  _328
REMARK  134  A    between atoms: _331  and  _333
REMARK  135  A    between atoms: _333  and  _334
REMARK  136  A    between atoms: _333  and  _336
REMARK  137  A    between atoms: _336  and  _337
REMARK  138  A    between atoms: _340  and  _342
REMARK  139  A    between atoms: _342  and  _343
REMARK  140  A    between atoms: _345  and  _347
REMARK  141  A    between atoms: _347  and  _348
REMARK  142  A    between atoms: _351  and  _353
REMARK  143  A    between atoms: _353  and  _354
REMARK  144  A    between atoms: _353  and  _356
REMARK  145  A    between atoms: _356  and  _357
REMARK  146  A    between atoms: _360  and  _362
REMARK  147  A    between atoms: _362  and  _363
REMARK  148  A    between atoms: _362  and  _365
REMARK  149  A    between atoms: _365  and  _366
REMARK  150  A    between atoms: _369  and  _371
REMARK  151  A    between atoms: _371  and  _372
REMARK  152  A    between atoms: _371  and  _374
REMARK  153  A    between atoms: _374  and  _375
REMARK  154  A    between atoms: _378  and  _380
REMARK  155  A    between atoms: _380  and  _381
REMARK  156  A    between atoms: _380  and  _383
REMARK  157  A    between atoms: _386  and  _388
REMARK  158  A    between atoms: _388  and  _389
REMARK  159  A    between atoms: _388  and  _391
REMARK  160  A    between atoms: _391  and  _392
REMARK  161  A    between atoms: _392  and  _393
REMARK  162  A    between atoms: _393  and  _394
REMARK  163  A    between atoms: _394  and  _395
REMARK  164  A    between atoms: _399  and  _401
REMARK  165  A    between atoms: _401  and  _402
REMARK  166  A    between atoms: _401  and  _404
REMARK  167  A    between atoms: _404  and  _405
REMARK  168  A    between atoms: _408  and  _410
REMARK  169  A    between atoms: _410  and  _411
REMARK  170  A    between atoms: _413  and  _415
REMARK  171  A    between atoms: _415  and  _416
REMARK  172  A    between atoms: _418  and  _420
REMARK  173  A    between atoms: _420  and  _421
REMARK  174  A    between atoms: _420  and  _423
REMARK  175  A    between atoms: _423  and  _424
REMARK  176  A    between atoms: _427  and  _429
REMARK  177  A    between atoms: _429  and  _430
REMARK  178  A    between atoms: _432  and  _434
REMARK  179  A    between atoms: _434  and  _435
REMARK  180  A    between atoms: _437  and  _439
REMARK  181  A    between atoms: _439  and  _440
REMARK  182  A    between atoms: _439  and  _442
REMARK  183  A    between atoms: _442  and  _443
REMARK  184  A    between atoms: _449  and  _451
REMARK  185  A    between atoms: _451  and  _452
REMARK  186  A    between atoms: _451  and  _454
REMARK  187  A    between atoms: _454  and  _455
REMARK  188  A    between atoms: _458  and  _460
REMARK  189  A    between atoms: _460  and  _461
REMARK  190  A    between atoms: _460  and  _463
REMARK  191  A    between atoms: _463  and  _464
REMARK  192  A    between atoms: _468  and  _469
REMARK  193  A    between atoms: _474  and  _476
REMARK  194  A    between atoms: _476  and  _477
REMARK  195  A    between atoms: _476  and  _479
REMARK  196  A    between atoms: _479  and  _480
REMARK  197  A    between atoms: _484  and  _485
REMARK  198  A    between atoms: _490  and  _492
REMARK  199  A    between atoms: _492  and  _493
REMARK  200  A    between atoms: _496  and  _498
REMARK  201  A    between atoms: _498  and  _499
REMARK  202  A    between atoms: _498  and  _501
REMARK  203  A    between atoms: _501  and  _502
REMARK  204  A    between atoms: _507  and  _509
REMARK  205  A    between atoms: _509  and  _510
REMARK  206  A    between atoms: _509  and  _512
REMARK  207  A    between atoms: _512  and  _513
REMARK  208  A    between atoms: _516  and  _518
REMARK  209  A    between atoms: _518  and  _519
REMARK  210  A    between atoms: _518  and  _521
REMARK  211  A    between atoms: _521  and  _522
REMARK  212  A    between atoms: _525  and  _527
REMARK  213  A    between atoms: _527  and  _528
REMARK  214  A    between atoms: _530  and  _532
REMARK  215  A    between atoms: _532  and  _533
REMARK  216  A    between atoms: _532  and  _535
REMARK  217  A    between atoms: _535  and  _536
REMARK  218  A    between atoms: _536  and  _537
REMARK  219  A    between atoms: _537  and  _538
REMARK                            x       y       z     vdW  Elec       q    Type
REMARK                         _______ _______ _______ _____ _____    ______ ____
ROOT
ATOM      1  CA  ILE A   5      -2.832  -0.773  18.138  0.00  0.00    +0.149 C 
ENDROOT
BRANCH   1   4
ATOM      2  C   ASN A   4      -4.003  -2.765  18.628  0.00  0.00    +0.241 C 
ATOM      3  O   ASN A   4      -3.498  -2.812  19.740  0.00  0.00    -0.273 OA
ATOM      4  N   ILE A   5      -3.856  -1.748  17.816  0.00  0.00    -0.297 N 
ATOM      5  H   ILE A   5      -4.452  -1.643  16.970  0.00  0.00    +0.150 HD
BRANCH   2   6
ATOM      6  CA  ASN A   4      -4.800  -3.927  18.114  0.00  0.00    +0.158 C 
BRANCH   6   8
ATOM      7  C   ALA A   3      -3.227  -5.479  17.114  0.00  0.00    +0.241 C 
ATOM      8  N   ASN A   4      -4.005  -5.169  18.130  0.00  0.00    -0.297 N 
ATOM      9  H   ASN A   4      -4.059  -5.805  18.951  0.00  0.00    +0.150 HD
ATOM     10  O   ALA A   3      -3.201  -4.848  16.083  0.00  0.00    -0.273 OA
BRANCH   7  11
ATOM     11  CA  ALA A   3      -2.344  -6.691  17.285  0.00  0.00    +0.149 C 
ATOM     12  CB  ALA A   3      -1.004  -6.205  17.825  0.00  0.00    +0.031 C 
BRANCH  11  15
ATOM     13  C   PRO A   2      -1.963  -8.708  15.900  0.00  0.00    +0.241 C 
ATOM     14  O   PRO A   2      -2.233  -9.528  16.765  0.00  0.00    -0.273 OA
ATOM     15  N   ALA A   3      -2.123  -7.371  16.007  0.00  0.00    -0.297 N 
ATOM     16  H   ALA A   3      -2.088  -6.797  15.140  0.00  0.00    +0.150 HD
BRANCH  13  20
ATOM     17  C   THR A   1      -2.993  -8.041  13.193  0.00  0.00    +0.244 C 
ATOM     18  O   THR A   1      -3.952  -8.521  13.779  0.00  0.00    -0.273 OA
ATOM     19  N   PRO A   2      -1.719  -8.369  13.457  0.00  0.00    -0.272 N 
ATOM     20  CA  PRO A   2      -1.377  -9.191  14.599  0.00  0.00    +0.152 C 
ATOM     21  CB  PRO A   2       0.124  -9.065  14.674  0.00  0.00    +0.031 C 
ATOM     22  CG  PRO A   2       0.585  -8.813  13.270  0.00  0.00    +0.024 C 
ATOM     23  CD  PRO A   2      -0.524  -7.938  12.738  0.00  0.00    +0.094 C 
BRANCH  17  24
ATOM     24  CA  THR A   1      -3.234  -7.011  12.101  0.00  0.00    +0.172 C 
BRANCH  24  25
ATOM     25  CB  THR A   1      -3.474  -5.560  12.609  0.00  0.00    +0.135 C 
ATOM     26  CG2 THR A   1      -4.730  -5.390  13.437  0.00  0.00    +0.034 C 
BRANCH  25  27
ATOM     27  OG1 THR A   1      -2.310  -5.118  13.330  0.00  0.00    -0.383 OA
ATOM     28  HG1 THR A   1      -2.152  -5.720  14.100  0.00  0.00    +0.210 HD
ENDBRANCH  25  27
ENDBRANCH  24  25
BRANCH  24  29
ATOM     29  N   THR A   1      -4.452  -7.411  11.423  0.00  0.00    -0.236 NA
ATOM     30  H   THR A   1      -5.370  -7.258  11.887  0.00  0.00    +0.142 HD
ENDBRANCH  24  29
ENDBRANCH  17  24
ENDBRANCH  13  20
ENDBRANCH  11  15
ENDBRANCH   7  11
ENDBRANCH   6   8
BRANCH   6  31
ATOM     31  CB  ASN A   4      -6.013  -4.011  19.066  0.00  0.00    +0.114 C 
BRANCH  31  32
ATOM     32  CG  ASN A   4      -7.058  -5.044  18.666  0.00  0.00    +0.222 C 
ATOM     33  OD1 ASN A   4      -7.807  -5.588  19.461  0.00  0.00    -0.275 OA
ATOM     34  ND2 ASN A   4      -7.024  -5.396  17.398  0.00  0.00    -0.329 N 
ATOM     35 HD21 ASN A   4      -7.645  -6.155  17.052  0.00  0.00    +0.145 HD
ATOM     36 HD22 ASN A   4      -6.376  -4.915  16.742  0.00  0.00    +0.145 HD
ENDBRANCH  31  32
ENDBRANCH   6  31
ENDBRANCH   2   6
ENDBRANCH   1   4
BRANCH   1  37
ATOM     37  C   ILE A   5      -3.508   0.540  18.219  0.00  0.00    +0.241 C 
ATOM     38  N   ILE A   6      -3.262   1.305  19.278  0.00  0.00    -0.297 N 
ATOM     39  H   ILE A   6      -2.720   0.927  20.081  0.00  0.00    +0.150 HD
ATOM     40  O   ILE A   5      -4.261   0.838  17.324  0.00  0.00    -0.273 OA
BRANCH  38  41
ATOM     41  CA  ILE A   6      -3.751   2.664  19.308  0.00  0.00    +0.149 C 
BRANCH  41  42
ATOM     42  C   ILE A   6      -2.585   3.602  18.980  0.00  0.00    +0.241 C 
ATOM     43  O   ILE A   6      -1.580   3.568  19.680  0.00  0.00    -0.273 OA
ATOM     44  N   GLY A   7      -2.686   4.372  17.913  0.00  0.00    -0.295 N 
ATOM     45  H   GLY A   7      -3.577   4.479  17.387  0.00  0.00    +0.150 HD
BRANCH  44  46
ATOM     46  CA  GLY A   7      -1.463   5.063  17.523  0.00  0.00    +0.176 C 
BRANCH  46  47
ATOM     47  C   GLY A   7      -1.605   6.517  17.903  0.00  0.00    +0.243 C 
ATOM     48  O   GLY A   7      -2.527   6.903  18.621  0.00  0.00    -0.273 OA
ATOM     49  N   ARG A   8      -0.687   7.344  17.386  0.00  0.00    -0.298 N 
ATOM     50  H   ARG A   8      -0.002   6.984  16.691  0.00  0.00    +0.150 HD
BRANCH  49  51
ATOM     51  CA  ARG A   8      -0.639   8.744  17.788  0.00  0.00    +0.137 C 
BRANCH  51  52
ATOM     52  C   ARG A   8      -1.791   9.589  17.387  0.00  0.00    +0.227 C 
ATOM     53  O   ARG A   8      -1.984  10.628  18.004  0.00  0.00    -0.286 OA
ENDBRANCH  51  52
BRANCH  51  54
ATOM     54  CB  ARG A   8       0.546   9.523  17.283  0.00  0.00    +0.031 C 
BRANCH  54  55
ATOM     55  CG  ARG A   8       1.822   9.024  17.844  0.00  0.00    +0.045 C 
BRANCH  55  56
ATOM     56  CD  ARG A   8       3.040   9.854  17.445  0.00  0.00    +0.174 C 
BRANCH  56  57
ATOM     57  NE  ARG A   8       3.275   9.825  16.010  0.00  0.00    -0.265 N 
ATOM     58  HE  ARG A   8       3.758   9.013  15.575  0.00  0.00    +0.259 HD
ATOM     59  CZ  ARG A   8       2.866  10.848  15.253  0.00  0.00    +0.342 C 
ATOM     60  NH2 ARG A   8       2.406  11.976  15.794  0.00  0.00    -0.292 N 
ATOM     61 HH21 ARG A   8       2.359  12.075  16.828  0.00  0.00    +0.255 HD
ATOM     62 HH22 ARG A   8       2.094  12.757  15.182  0.00  0.00    +0.255 HD
ATOM     63  NH1 ARG A   8       2.875  10.703  13.933  0.00  0.00    -0.292 N 
ATOM     64 HH11 ARG A   8       3.195   9.808  13.510  0.00  0.00    +0.255 HD
ATOM     65 HH12 ARG A   8       2.562  11.484  13.322  0.00  0.00    +0.255 HD
ENDBRANCH  56  57
ENDBRANCH  55  56
ENDBRANCH  54  55
ENDBRANCH  51  54
ENDBRANCH  49  51
ENDBRANCH  46  47
ENDBRANCH  44  46
ENDBRANCH  41  42
BRANCH  41  66
ATOM     66  CB  ILE A   6      -4.253   2.926  20.717  0.00  0.00    +0.027 C 
ATOM     67  CG2 ILE A   6      -4.822   4.322  20.824  0.00  0.00    +0.002 C 
BRANCH  66  68
ATOM     68  CG1 ILE A   6      -5.305   1.967  21.213  0.00  0.00    +0.002 C 
ATOM     69  CD1 ILE A   6      -6.615   2.016  20.390  0.00  0.00    +0.000 C 
ENDBRANCH  66  68
ENDBRANCH  41  66
ENDBRANCH  38  41
ENDBRANCH   1  37
BRANCH   1  70
ATOM     70  CB  ILE A   5      -1.910  -0.794  16.938  0.00  0.00    +0.027 C 
ATOM     71  CG2 ILE A   5      -1.050   0.423  16.680  0.00  0.00    +0.002 C 
BRANCH  70  72
ATOM     72  CG1 ILE A   5      -1.008  -1.951  17.080  0.00  0.00    +0.002 C 
ATOM     73  CD1 ILE A   5      -0.462  -2.300  15.711  0.00  0.00    +0.000 C 
ENDBRANCH  70  72
ENDBRANCH   1  70
TORSDOF 27
REMARK  Name = ../refined-set-2016/1hvs/1hvs_pocket.pdb
REMARK  219 active torsions:
REMARK  status: ('A' for Active; 'I' for Inactive)
REMARK    1  A    between atoms: _1  and  _3
REMARK    2  A    between atoms: _3  and  _4
REMARK    3  A    between atoms: _3  and  _6
REMARK    4  A    between atoms: _6  and  _7
REMARK    5  A    between atoms: _7  and  _8
REMARK    6  A    between atoms: _8  and  _9
REMARK    7  A    between atoms: _19  and  _20
REMARK    8  A    between atoms: _25  and  _27
REMARK    9  A    between atoms: _27  and  _28
REMARK   10  A    between atoms: _27  and  _30
REMARK   11  A    between atoms: _30  and  _31
REMARK   12  A    between atoms: _34  and  _36
REMARK   13  A    between atoms: _36  and  _37
REMARK   14  A    between atoms: _36  and  _39
REMARK   15  A    between atoms: _39  and  _40
REMARK   16  A    between atoms: _43  and  _45
REMARK   17  A    between atoms: _45  and  _46
REMARK   18  A    between atoms: _45  and  _48
REMARK   19  A    between atoms: _48  and  _49
REMARK   20  A    between atoms: _52  and  _54
REMARK   21  A    between atoms: _54  and  _55
REMARK   22  A    between atoms: _54  and  _57
REMARK   23  A    between atoms: _57  and  _58
REMARK   24  A    between atoms: _61  and  _63
REMARK   25  A    between atoms: _63  and  _64
REMARK   26  A    between atoms: _63  and  _66
REMARK   27  A    between atoms: _66  and  _67
REMARK   28  A    between atoms: _70  and  _72
REMARK   29  A    between atoms: _72  and  _73
REMARK   30  A    between atoms: _75  and  _77
REMARK   31  A    between atoms: _77  and  _78
REMARK   32  A    between atoms: _81  and  _83
REMARK   33  A    between atoms: _83  and  _84
REMARK   34  A    between atoms: _83  and  _86
REMARK   35  A    between atoms: _86  and  _87
REMARK   36  A    between atoms: _90  and  _92
REMARK   37  A    between atoms: _92  and  _93
REMARK   38  A    between atoms: _92  and  _95
REMARK   39  A    between atoms: _95  and  _96
REMARK   40  A    between atoms: _99  and  _101
REMARK   41  A    between atoms: _101  and  _102
REMARK   42  A    between atoms: _101  and  _104
REMARK   43  A    between atoms: _104  and  _105
REMARK   44  A    between atoms: _108  and  _110
REMARK   45  A    between atoms: _110  and  _111
REMARK   46  A    between atoms: _110  and  _113
REMARK   47  A    between atoms: _116  and  _118
REMARK   48  A    between atoms: _118  and  _119
REMARK   49  A    between atoms: _118  and  _121
REMARK   50  A    between atoms: _121  and  _122
REMARK   51  A    between atoms: _122  and  _123
REMARK   52  A    between atoms: _123  and  _124
REMARK   53  A    between atoms: _124  and  _125
REMARK   54  A    between atoms: _129  and  _131
REMARK   55  A    between atoms: _131  and  _132
REMARK   56  A    between atoms: _131  and  _134
REMARK   57  A    between atoms: _134  and  _135
REMARK   58  A    between atoms: _138  and  _140
REMARK   59  A    between atoms: _140  and  _141
REMARK   60  A    between atoms: _143  and  _145
REMARK   61  A    between atoms: _145  and  _146
REMARK   62  A    between atoms: _148  and  _150
REMARK   63  A    between atoms: _150  and  _151
REMARK   64  A    between atoms: _150  and  _153
REMARK   65  A    between atoms: _153  and  _154
REMARK   66  A    between atoms: _157  and  _159
REMARK   67  A    between atoms: _159  and  _160
REMARK   68  A    between atoms: _162  and  _164
REMARK   69  A    between atoms: _164  and  _165
REMARK   70  A    between atoms: _167  and  _169
REMARK   71  A    between atoms: _169  and  _170
REMARK   72  A    between atoms: _169  and  _172
REMARK   73  A    between atoms: _172  and  _173
REMARK   74  A    between atoms: _179  and  _181
REMARK   75  A    between atoms: _181  and  _182
REMARK   76  A    between atoms: _181  and  _184
REMARK   77  A    between atoms: _184  and  _185
REMARK   78  A    between atoms: _188  and  _190
REMARK   79  A    between atoms: _190  and  _191
REMARK   80  A    between atoms: _190  and  _193
REMARK   81  A    between atoms: _196  and  _198
REMARK   82  A    between atoms: _198  and  _199
REMARK   83  A    between atoms: _198  and  _201
REMARK   84  A    between atoms: _201  and  _202
REMARK   85  A    between atoms: _205  and  _207
REMARK   86  A    between atoms: _207  and  _208
REMARK   87  A    between atoms: _207  and  _210
REMARK   88  A    between atoms: _210  and  _211
REMARK   89  A    between atoms: _215  and  _216
REMARK   90  A    between atoms: _221  and  _223
REMARK   91  A    between atoms: _223  and  _224
REMARK   92  A    between atoms: _227  and  _229
REMARK   93  A    between atoms: _229  and  _230
REMARK   94  A    between atoms: _229  and  _232
REMARK   95  A    between atoms: _232  and  _233
REMARK   96  A    between atoms: _238  and  _240
REMARK   97  A    between atoms: _240  and  _241
REMARK   98  A    between atoms: _240  and  _243
REMARK   99  A    between atoms: _243  and  _244
REMARK  100  A    between atoms: _247  and  _249
REMARK  101  A    between atoms: _249  and  _250
REMARK  102  A    between atoms: _249  and  _252
REMARK  103  A    between atoms: _252  and  _253
REMARK  104  A    between atoms: _256  and  _258
REMARK  105  A    between atoms: _258  and  _259
REMARK  106  A    between atoms: _261  and  _263
REMARK  107  A    between atoms: _263  and  _264
REMARK  108  A    between atoms: _263  and  _266
REMARK  109  A    between atoms: _266  and  _267
REMARK  110  A    between atoms: _267  and  _268
REMARK  111  A    between atoms: _268  and  _269
REMARK  112  A    between atoms: _278  and  _280
REMARK  113  A    between atoms: _280  and  _281
REMARK  114  A    between atoms: _280  and  _283
REMARK  115  A    between atoms: _283  and  _284
REMARK  116  A    between atoms: _284  and  _285
REMARK  117  A    between atoms: _285  and  _286
REMARK  118  A    between atoms: _295  and  _297
REMARK  119  A    between atoms: _297  and  _298
REMARK  120  A    between atoms: _297  and  _300
REMARK  121  A    between atoms: _300  and  _301
REMARK  122  A    between atoms: _304  and  _306
REMARK  123  A    between atoms: _306  and  _307
REMARK  124  A    between atoms: _306  and  _309
REMARK  125  A    between atoms: _309  and  _310
REMARK  126  A    between atoms: _313  and  _315
REMARK  127  A    between atoms: _315  and  _316
REMARK  128  A    between atoms: _315  and  _318
REMARK  129  A    between atoms: _318  and  _319
REMARK  130  A    between atoms: _322  and  _324
REMARK  131  A    between atoms: _324  and  _325
REMARK  132  A    between atoms: _324  and  _327
REMARK  133  A    between atoms: _327  and  _328
REMARK  134  A    between atoms: _331  and  _333
REMARK  135  A    between atoms: _333  and  _334
REMARK  136  A    between atoms: _333  and  _336
REMARK  137  A    between atoms: _336  and  _337
REMARK  138  A    between atoms: _340  and  _342
REMARK  139  A    between atoms: _342  and  _343
REMARK  140  A    between atoms: _345  and  _347
REMARK  141  A    between atoms: _347  and  _348
REMARK  142  A    between atoms: _351  and  _353
REMARK  143  A    between atoms: _353  and  _354
REMARK  144  A    between atoms: _353  and  _356
REMARK  145  A    between atoms: _356  and  _357
REMARK  146  A    between atoms: _360  and  _362
REMARK  147  A    between atoms: _362  and  _363
REMARK  148  A    between atoms: _362  and  _365
REMARK  149  A    between atoms: _365  and  _366
REMARK  150  A    between atoms: _369  and  _371
REMARK  151  A    between atoms: _371  and  _372
REMARK  152  A    between atoms: _371  and  _374
REMARK  153  A    between atoms: _374  and  _375
REMARK  154  A    between atoms: _378  and  _380
REMARK  155  A    between atoms: _380  and  _381
REMARK  156  A    between atoms: _380  and  _383
REMARK  157  A    between atoms: _386  and  _388
REMARK  158  A    between atoms: _388  and  _389
REMARK  159  A    between atoms: _388  and  _391
REMARK  160  A    between atoms: _391  and  _392
REMARK  161  A    between atoms: _392  and  _393
REMARK  162  A    between atoms: _393  and  _394
REMARK  163  A    between atoms: _394  and  _395
REMARK  164  A    between atoms: _399  and  _401
REMARK  165  A    between atoms: _401  and  _402
REMARK  166  A    between atoms: _401  and  _404
REMARK  167  A    between atoms: _404  and  _405
REMARK  168  A    between atoms: _408  and  _410
REMARK  169  A    between atoms: _410  and  _411
REMARK  170  A    between atoms: _413  and  _415
REMARK  171  A    between atoms: _415  and  _416
REMARK  172  A    between atoms: _418  and  _420
REMARK  173  A    between atoms: _420  and  _421
REMARK  174  A    between atoms: _420  and  _423
REMARK  175  A    between atoms: _423  and  _424
REMARK  176  A    between atoms: _427  and  _429
REMARK  177  A    between atoms: _429  and  _430
REMARK  178  A    between atoms: _432  and  _434
REMARK  179  A    between atoms: _434  and  _435
REMARK  180  A    between atoms: _437  and  _439
REMARK  181  A    between atoms: _439  and  _440
REMARK  182  A    between atoms: _439  and  _442
REMARK  183  A    between atoms: _442  and  _443
REMARK  184  A    between atoms: _449  and  _451
REMARK  185  A    between atoms: _451  and  _452
REMARK  186  A    between atoms: _451  and  _454
REMARK  187  A    between atoms: _454  and  _455
REMARK  188  A    between atoms: _458  and  _460
REMARK  189  A    between atoms: _460  and  _461
REMARK  190  A    between atoms: _460  and  _463
REMARK  191  A    between atoms: _463  and  _464
REMARK  192  A    between atoms: _468  and  _469
REMARK  193  A    between atoms: _474  and  _476
REMARK  194  A    between atoms: _476  and  _477
REMARK  195  A    between atoms: _476  and  _479
REMARK  196  A    between atoms: _479  and  _480
REMARK  197  A    between atoms: _484  and  _485
REMARK  198  A    between atoms: _490  and  _492
REMARK  199  A    between atoms: _492  and  _493
REMARK  200  A    between atoms: _496  and  _498
REMARK  201  A    between atoms: _498  and  _499
REMARK  202  A    between atoms: _498  and  _501
REMARK  203  A    between atoms: _501  and  _502
REMARK  204  A    between atoms: _507  and  _509
REMARK  205  A    between atoms: _509  and  _510
REMARK  206  A    between atoms: _509  and  _512
REMARK  207  A    between atoms: _512  and  _513
REMARK  208  A    between atoms: _516  and  _518
REMARK  209  A    between atoms: _518  and  _519
REMARK  210  A    between atoms: _518  and  _521
REMARK  211  A    between atoms: _521  and  _522
REMARK  212  A    between atoms: _525  and  _527
REMARK  213  A    between atoms: _527  and  _528
REMARK  214  A    between atoms: _530  and  _532
REMARK  215  A    between atoms: _532  and  _533
REMARK  216  A    between atoms: _532  and  _535
REMARK  217  A    between atoms: _535  and  _536
REMARK  218  A    between atoms: _536  and  _537
REMARK  219  A    between atoms: _537  and  _538
REMARK                            x       y       z     vdW  Elec       q    Type
REMARK                         _______ _______ _______ _____ _____    ______ ____
ROOT
ATOM      1  NE  ARG A   1       6.159   9.239  11.219  0.00  0.00    -0.265 N 
ATOM      2  HE  ARG A   1       5.213   8.960  11.549  0.00  0.00    +0.259 HD
ATOM      3  CZ  ARG A   1       6.375   9.286   9.903  0.00  0.00    +0.342 C 
ATOM      4  NH2 ARG A   1       7.598   9.585   9.417  0.00  0.00    -0.292 N 
ATOM      5 HH21 ARG A   1       8.383   9.782  10.070  0.00  0.00    +0.255 HD
ATOM      6 HH22 ARG A   1       7.755   9.619   8.390  0.00  0.00    +0.255 HD
ATOM      7  NH1 ARG A   1       5.320   9.015   9.130  0.00  0.00    -0.292 N 
ATOM      8 HH11 ARG A   1       4.403   8.786   9.564  0.00  0.00    +0.255 HD
ATOM      9 HH12 ARG A   1       5.416   9.033   8.095  0.00  0.00    +0.255 HD
ENDROOT
BRANCH   1  10
ATOM     10  CD  ARG A   1       7.177   9.557  12.231  0.00  0.00    +0.174 C 
BRANCH  10  11
ATOM     11  CG  ARG A   1       6.534  10.194  13.478  0.00  0.00    +0.045 C 
BRANCH  11  12
ATOM     12  CB  ARG A   1       7.524  10.549  14.579  0.00  0.00    +0.029 C 
BRANCH  12  13
ATOM     13  CA  ARG A   1       6.844  11.167  15.788  0.00  0.00    +0.133 C 
BRANCH  13  14
ATOM     14  N   ARG A   1       6.356  12.518  15.458  0.00  0.00    -0.239 NA
ATOM     15  H   ARG A   1       6.587  12.928  14.531  0.00  0.00    +0.142 HD
ENDBRANCH  13  14
BRANCH  13  16
ATOM     16  C   ARG A   1       7.882  11.344  16.844  0.00  0.00    +0.224 C 
ATOM     17  O   ARG A   1       8.646  12.285  16.739  0.00  0.00    -0.287 OA
ENDBRANCH  13  16
ENDBRANCH  12  13
ENDBRANCH  11  12
ENDBRANCH  10  11
ENDBRANCH   1  10
TORSDOF 6
REMARK  Name = ../refined-set-2016/1hvs/1hvs_pocket.pdb
REMARK  219 active torsions:
REMARK  status: ('A' for Active; 'I' for Inactive)
REMARK    1  A    between atoms: _1  and  _3
REMARK    2  A    between atoms: _3  and  _4
REMARK    3  A    between atoms: _3  and  _6
REMARK    4  A    between atoms: _6  and  _7
REMARK    5  A    between atoms: _7  and  _8
REMARK    6  A    between atoms: _8  and  _9
REMARK    7  A    between atoms: _19  and  _20
REMARK    8  A    between atoms: _25  and  _27
REMARK    9  A    between atoms: _27  and  _28
REMARK   10  A    between atoms: _27  and  _30
REMARK   11  A    between atoms: _30  and  _31
REMARK   12  A    between atoms: _34  and  _36
REMARK   13  A    between atoms: _36  and  _37
REMARK   14  A    between atoms: _36  and  _39
REMARK   15  A    between atoms: _39  and  _40
REMARK   16  A    between atoms: _43  and  _45
REMARK   17  A    between atoms: _45  and  _46
REMARK   18  A    between atoms: _45  and  _48
REMARK   19  A    between atoms: _48  and  _49
REMARK   20  A    between atoms: _52  and  _54
REMARK   21  A    between atoms: _54  and  _55
REMARK   22  A    between atoms: _54  and  _57
REMARK   23  A    between atoms: _57  and  _58
REMARK   24  A    between atoms: _61  and  _63
REMARK   25  A    between atoms: _63  and  _64
REMARK   26  A    between atoms: _63  and  _66
REMARK   27  A    between atoms: _66  and  _67
REMARK   28  A    between atoms: _70  and  _72
REMARK   29  A    between atoms: _72  and  _73
REMARK   30  A    between atoms: _75  and  _77
REMARK   31  A    between atoms: _77  and  _78
REMARK   32  A    between atoms: _81  and  _83
REMARK   33  A    between atoms: _83  and  _84
REMARK   34  A    between atoms: _83  and  _86
REMARK   35  A    between atoms: _86  and  _87
REMARK   36  A    between atoms: _90  and  _92
REMARK   37  A    between atoms: _92  and  _93
REMARK   38  A    between atoms: _92  and  _95
REMARK   39  A    between atoms: _95  and  _96
REMARK   40  A    between atoms: _99  and  _101
REMARK   41  A    between atoms: _101  and  _102
REMARK   42  A    between atoms: _101  and  _104
REMARK   43  A    between atoms: _104  and  _105
REMARK   44  A    between atoms: _108  and  _110
REMARK   45  A    between atoms: _110  and  _111
REMARK   46  A    between atoms: _110  and  _113
REMARK   47  A    between atoms: _116  and  _118
REMARK   48  A    between atoms: _118  and  _119
REMARK   49  A    between atoms: _118  and  _121
REMARK   50  A    between atoms: _121  and  _122
REMARK   51  A    between atoms: _122  and  _123
REMARK   52  A    between atoms: _123  and  _124
REMARK   53  A    between atoms: _124  and  _125
REMARK   54  A    between atoms: _129  and  _131
REMARK   55  A    between atoms: _131  and  _132
REMARK   56  A    between atoms: _131  and  _134
REMARK   57  A    between atoms: _134  and  _135
REMARK   58  A    between atoms: _138  and  _140
REMARK   59  A    between atoms: _140  and  _141
REMARK   60  A    between atoms: _143  and  _145
REMARK   61  A    between atoms: _145  and  _146
REMARK   62  A    between atoms: _148  and  _150
REMARK   63  A    between atoms: _150  and  _151
REMARK   64  A    between atoms: _150  and  _153
REMARK   65  A    between atoms: _153  and  _154
REMARK   66  A    between atoms: _157  and  _159
REMARK   67  A    between atoms: _159  and  _160
REMARK   68  A    between atoms: _162  and  _164
REMARK   69  A    between atoms: _164  and  _165
REMARK   70  A    between atoms: _167  and  _169
REMARK   71  A    between atoms: _169  and  _170
REMARK   72  A    between atoms: _169  and  _172
REMARK   73  A    between atoms: _172  and  _173
REMARK   74  A    between atoms: _179  and  _181
REMARK   75  A    between atoms: _181  and  _182
REMARK   76  A    between atoms: _181  and  _184
REMARK   77  A    between atoms: _184  and  _185
REMARK   78  A    between atoms: _188  and  _190
REMARK   79  A    between atoms: _190  and  _191
REMARK   80  A    between atoms: _190  and  _193
REMARK   81  A    between atoms: _196  and  _198
REMARK   82  A    between atoms: _198  and  _199
REMARK   83  A    between atoms: _198  and  _201
REMARK   84  A    between atoms: _201  and  _202
REMARK   85  A    between atoms: _205  and  _207
REMARK   86  A    between atoms: _207  and  _208
REMARK   87  A    between atoms: _207  and  _210
REMARK   88  A    between atoms: _210  and  _211
REMARK   89  A    between atoms: _215  and  _216
REMARK   90  A    between atoms: _221  and  _223
REMARK   91  A    between atoms: _223  and  _224
REMARK   92  A    between atoms: _227  and  _229
REMARK   93  A    between atoms: _229  and  _230
REMARK   94  A    between atoms: _229  and  _232
REMARK   95  A    between atoms: _232  and  _233
REMARK   96  A    between atoms: _238  and  _240
REMARK   97  A    between atoms: _240  and  _241
REMARK   98  A    between atoms: _240  and  _243
REMARK   99  A    between atoms: _243  and  _244
REMARK  100  A    between atoms: _247  and  _249
REMARK  101  A    between atoms: _249  and  _250
REMARK  102  A    between atoms: _249  and  _252
REMARK  103  A    between atoms: _252  and  _253
REMARK  104  A    between atoms: _256  and  _258
REMARK  105  A    between atoms: _258  and  _259
REMARK  106  A    between atoms: _261  and  _263
REMARK  107  A    between atoms: _263  and  _264
REMARK  108  A    between atoms: _263  and  _266
REMARK  109  A    between atoms: _266  and  _267
REMARK  110  A    between atoms: _267  and  _268
REMARK  111  A    between atoms: _268  and  _269
REMARK  112  A    between atoms: _278  and  _280
REMARK  113  A    between atoms: _280  and  _281
REMARK  114  A    between atoms: _280  and  _283
REMARK  115  A    between atoms: _283  and  _284
REMARK  116  A    between atoms: _284  and  _285
REMARK  117  A    between atoms: _285  and  _286
REMARK  118  A    between atoms: _295  and  _297
REMARK  119  A    between atoms: _297  and  _298
REMARK  120  A    between atoms: _297  and  _300
REMARK  121  A    between atoms: _300  and  _301
REMARK  122  A    between atoms: _304  and  _306
REMARK  123  A    between atoms: _306  and  _307
REMARK  124  A    between atoms: _306  and  _309
REMARK  125  A    between atoms: _309  and  _310
REMARK  126  A    between atoms: _313  and  _315
REMARK  127  A    between atoms: _315  and  _316
REMARK  128  A    between atoms: _315  and  _318
REMARK  129  A    between atoms: _318  and  _319
REMARK  130  A    between atoms: _322  and  _324
REMARK  131  A    between atoms: _324  and  _325
REMARK  132  A    between atoms: _324  and  _327
REMARK  133  A    between atoms: _327  and  _328
REMARK  134  A    between atoms: _331  and  _333
REMARK  135  A    between atoms: _333  and  _334
REMARK  136  A    between atoms: _333  and  _336
REMARK  137  A    between atoms: _336  and  _337
REMARK  138  A    between atoms: _340  and  _342
REMARK  139  A    between atoms: _342  and  _343
REMARK  140  A    between atoms: _345  and  _347
REMARK  141  A    between atoms: _347  and  _348
REMARK  142  A    between atoms: _351  and  _353
REMARK  143  A    between atoms: _353  and  _354
REMARK  144  A    between atoms: _353  and  _356
REMARK  145  A    between atoms: _356  and  _357
REMARK  146  A    between atoms: _360  and  _362
REMARK  147  A    between atoms: _362  and  _363
REMARK  148  A    between atoms: _362  and  _365
REMARK  149  A    between atoms: _365  and  _366
REMARK  150  A    between atoms: _369  and  _371
REMARK  151  A    between atoms: _371  and  _372
REMARK  152  A    between atoms: _371  and  _374
REMARK  153  A    between atoms: _374  and  _375
REMARK  154  A    between atoms: _378  and  _380
REMARK  155  A    between atoms: _380  and  _381
REMARK  156  A    between atoms: _380  and  _383
REMARK  157  A    between atoms: _386  and  _388
REMARK  158  A    between atoms: _388  and  _389
REMARK  159  A    between atoms: _388  and  _391
REMARK  160  A    between atoms: _391  and  _392
REMARK  161  A    between atoms: _392  and  _393
REMARK  162  A    between atoms: _393  and  _394
REMARK  163  A    between atoms: _394  and  _395
REMARK  164  A    between atoms: _399  and  _401
REMARK  165  A    between atoms: _401  and  _402
REMARK  166  A    between atoms: _401  and  _404
REMARK  167  A    between atoms: _404  and  _405
REMARK  168  A    between atoms: _408  and  _410
REMARK  169  A    between atoms: _410  and  _411
REMARK  170  A    between atoms: _413  and  _415
REMARK  171  A    between atoms: _415  and  _416
REMARK  172  A    between atoms: _418  and  _420
REMARK  173  A    between atoms: _420  and  _421
REMARK  174  A    between atoms: _420  and  _423
REMARK  175  A    between atoms: _423  and  _424
REMARK  176  A    between atoms: _427  and  _429
REMARK  177  A    between atoms: _429  and  _430
REMARK  178  A    between atoms: _432  and  _434
REMARK  179  A    between atoms: _434  and  _435
REMARK  180  A    between atoms: _437  and  _439
REMARK  181  A    between atoms: _439  and  _440
REMARK  182  A    between atoms: _439  and  _442
REMARK  183  A    between atoms: _442  and  _443
REMARK  184  A    between atoms: _449  and  _451
REMARK  185  A    between atoms: _451  and  _452
REMARK  186  A    between atoms: _451  and  _454
REMARK  187  A    between atoms: _454  and  _455
REMARK  188  A    between atoms: _458  and  _460
REMARK  189  A    between atoms: _460  and  _461
REMARK  190  A    between atoms: _460  and  _463
REMARK  191  A    between atoms: _463  and  _464
REMARK  192  A    between atoms: _468  and  _469
REMARK  193  A    between atoms: _474  and  _476
REMARK  194  A    between atoms: _476  and  _477
REMARK  195  A    between atoms: _476  and  _479
REMARK  196  A    between atoms: _479  and  _480
REMARK  197  A    between atoms: _484  and  _485
REMARK  198  A    between atoms: _490  and  _492
REMARK  199  A    between atoms: _492  and  _493
REMARK  200  A    between atoms: _496  and  _498
REMARK  201  A    between atoms: _498  and  _499
REMARK  202  A    between atoms: _498  and  _501
REMARK  203  A    between atoms: _501  and  _502
REMARK  204  A    between atoms: _507  and  _509
REMARK  205  A    between atoms: _509  and  _510
REMARK  206  A    between atoms: _509  and  _512
REMARK  207  A    between atoms: _512  and  _513
REMARK  208  A    between atoms: _516  and  _518
REMARK  209  A    between atoms: _518  and  _519
REMARK  210  A    between atoms: _518  and  _521
REMARK  211  A    between atoms: _521  and  _522
REMARK  212  A    between atoms: _525  and  _527
REMARK  213  A    between atoms: _527  and  _528
REMARK  214  A    between atoms: _530  and  _532
REMARK  215  A    between atoms: _532  and  _533
REMARK  216  A    between atoms: _532  and  _535
REMARK  217  A    between atoms: _535  and  _536
REMARK  218  A    between atoms: _536  and  _537
REMARK  219  A    between atoms: _537  and  _538
REMARK                            x       y       z     vdW  Elec       q    Type
REMARK                         _______ _______ _______ _____ _____    ______ ____
ROOT
ATOM      1  CA  LEU A   1      12.319  10.849  17.398  0.00  0.00    +0.133 C 
ENDROOT
BRANCH   1   2
ATOM      2  N   LEU A   1      10.929  11.164  17.780  0.00  0.00    -0.239 NA
ATOM      3  H   LEU A   1      10.484  12.033  17.423  0.00  0.00    +0.142 HD
ENDBRANCH   1   2
BRANCH   1   4
ATOM      4  C   LEU A   1      13.343  11.459  18.330  0.00  0.00    +0.224 C 
ATOM      5  O   LEU A   1      13.216  12.617  18.687  0.00  0.00    -0.287 OA
ENDBRANCH   1   4
BRANCH   1   6
ATOM      6  CB  LEU A   1      12.602  11.385  16.008  0.00  0.00    +0.025 C 
BRANCH   6   7
ATOM      7  CG  LEU A   1      11.789  10.784  14.918  0.00  0.00    +0.002 C 
ATOM      8  CD2 LEU A   1      12.158   9.331  14.717  0.00  0.00    +0.000 C 
ATOM      9  CD1 LEU A   1      11.959  11.648  13.688  0.00  0.00    +0.000 C 
ENDBRANCH   6   7
ENDBRANCH   1   6
TORSDOF 4
REMARK  Name = ../refined-set-2016/1hvs/1hvs_pocket.pdb
REMARK  219 active torsions:
REMARK  status: ('A' for Active; 'I' for Inactive)
REMARK    1  A    between atoms: _1  and  _3
REMARK    2  A    between atoms: _3  and  _4
REMARK    3  A    between atoms: _3  and  _6
REMARK    4  A    between atoms: _6  and  _7
REMARK    5  A    between atoms: _7  and  _8
REMARK    6  A    between atoms: _8  and  _9
REMARK    7  A    between atoms: _19  and  _20
REMARK    8  A    between atoms: _25  and  _27
REMARK    9  A    between atoms: _27  and  _28
REMARK   10  A    between atoms: _27  and  _30
REMARK   11  A    between atoms: _30  and  _31
REMARK   12  A    between atoms: _34  and  _36
REMARK   13  A    between atoms: _36  and  _37
REMARK   14  A    between atoms: _36  and  _39
REMARK   15  A    between atoms: _39  and  _40
REMARK   16  A    between atoms: _43  and  _45
REMARK   17  A    between atoms: _45  and  _46
REMARK   18  A    between atoms: _45  and  _48
REMARK   19  A    between atoms: _48  and  _49
REMARK   20  A    between atoms: _52  and  _54
REMARK   21  A    between atoms: _54  and  _55
REMARK   22  A    between atoms: _54  and  _57
REMARK   23  A    between atoms: _57  and  _58
REMARK   24  A    between atoms: _61  and  _63
REMARK   25  A    between atoms: _63  and  _64
REMARK   26  A    between atoms: _63  and  _66
REMARK   27  A    between atoms: _66  and  _67
REMARK   28  A    between atoms: _70  and  _72
REMARK   29  A    between atoms: _72  and  _73
REMARK   30  A    between atoms: _75  and  _77
REMARK   31  A    between atoms: _77  and  _78
REMARK   32  A    between atoms: _81  and  _83
REMARK   33  A    between atoms: _83  and  _84
REMARK   34  A    between atoms: _83  and  _86
REMARK   35  A    between atoms: _86  and  _87
REMARK   36  A    between atoms: _90  and  _92
REMARK   37  A    between atoms: _92  and  _93
REMARK   38  A    between atoms: _92  and  _95
REMARK   39  A    between atoms: _95  and  _96
REMARK   40  A    between atoms: _99  and  _101
REMARK   41  A    between atoms: _101  and  _102
REMARK   42  A    between atoms: _101  and  _104
REMARK   43  A    between atoms: _104  and  _105
REMARK   44  A    between atoms: _108  and  _110
REMARK   45  A    between atoms: _110  and  _111
REMARK   46  A    between atoms: _110  and  _113
REMARK   47  A    between atoms: _116  and  _118
REMARK   48  A    between atoms: _118  and  _119
REMARK   49  A    between atoms: _118  and  _121
REMARK   50  A    between atoms: _121  and  _122
REMARK   51  A    between atoms: _122  and  _123
REMARK   52  A    between atoms: _123  and  _124
REMARK   53  A    between atoms: _124  and  _125
REMARK   54  A    between atoms: _129  and  _131
REMARK   55  A    between atoms: _131  and  _132
REMARK   56  A    between atoms: _131  and  _134
REMARK   57  A    between atoms: _134  and  _135
REMARK   58  A    between atoms: _138  and  _140
REMARK   59  A    between atoms: _140  and  _141
REMARK   60  A    between atoms: _143  and  _145
REMARK   61  A    between atoms: _145  and  _146
REMARK   62  A    between atoms: _148  and  _150
REMARK   63  A    between atoms: _150  and  _151
REMARK   64  A    between atoms: _150  and  _153
REMARK   65  A    between atoms: _153  and  _154
REMARK   66  A    between atoms: _157  and  _159
REMARK   67  A    between atoms: _159  and  _160
REMARK   68  A    between atoms: _162  and  _164
REMARK   69  A    between atoms: _164  and  _165
REMARK   70  A    between atoms: _167  and  _169
REMARK   71  A    between atoms: _169  and  _170
REMARK   72  A    between atoms: _169  and  _172
REMARK   73  A    between atoms: _172  and  _173
REMARK   74  A    between atoms: _179  and  _181
REMARK   75  A    between atoms: _181  and  _182
REMARK   76  A    between atoms: _181  and  _184
REMARK   77  A    between atoms: _184  and  _185
REMARK   78  A    between atoms: _188  and  _190
REMARK   79  A    between atoms: _190  and  _191
REMARK   80  A    between atoms: _190  and  _193
REMARK   81  A    between atoms: _196  and  _198
REMARK   82  A    between atoms: _198  and  _199
REMARK   83  A    between atoms: _198  and  _201
REMARK   84  A    between atoms: _201  and  _202
REMARK   85  A    between atoms: _205  and  _207
REMARK   86  A    between atoms: _207  and  _208
REMARK   87  A    between atoms: _207  and  _210
REMARK   88  A    between atoms: _210  and  _211
REMARK   89  A    between atoms: _215  and  _216
REMARK   90  A    between atoms: _221  and  _223
REMARK   91  A    between atoms: _223  and  _224
REMARK   92  A    between atoms: _227  and  _229
REMARK   93  A    between atoms: _229  and  _230
REMARK   94  A    between atoms: _229  and  _232
REMARK   95  A    between atoms: _232  and  _233
REMARK   96  A    between atoms: _238  and  _240
REMARK   97  A    between atoms: _240  and  _241
REMARK   98  A    between atoms: _240  and  _243
REMARK   99  A    between atoms: _243  and  _244
REMARK  100  A    between atoms: _247  and  _249
REMARK  101  A    between atoms: _249  and  _250
REMARK  102  A    between atoms: _249  and  _252
REMARK  103  A    between atoms: _252  and  _253
REMARK  104  A    between atoms: _256  and  _258
REMARK  105  A    between atoms: _258  and  _259
REMARK  106  A    between atoms: _261  and  _263
REMARK  107  A    between atoms: _263  and  _264
REMARK  108  A    between atoms: _263  and  _266
REMARK  109  A    between atoms: _266  and  _267
REMARK  110  A    between atoms: _267  and  _268
REMARK  111  A    between atoms: _268  and  _269
REMARK  112  A    between atoms: _278  and  _280
REMARK  113  A    between atoms: _280  and  _281
REMARK  114  A    between atoms: _280  and  _283
REMARK  115  A    between atoms: _283  and  _284
REMARK  116  A    between atoms: _284  and  _285
REMARK  117  A    between atoms: _285  and  _286
REMARK  118  A    between atoms: _295  and  _297
REMARK  119  A    between atoms: _297  and  _298
REMARK  120  A    between atoms: _297  and  _300
REMARK  121  A    between atoms: _300  and  _301
REMARK  122  A    between atoms: _304  and  _306
REMARK  123  A    between atoms: _306  and  _307
REMARK  124  A    between atoms: _306  and  _309
REMARK  125  A    between atoms: _309  and  _310
REMARK  126  A    between atoms: _313  and  _315
REMARK  127  A    between atoms: _315  and  _316
REMARK  128  A    between atoms: _315  and  _318
REMARK  129  A    between atoms: _318  and  _319
REMARK  130  A    between atoms: _322  and  _324
REMARK  131  A    between atoms: _324  and  _325
REMARK  132  A    between atoms: _324  and  _327
REMARK  133  A    between atoms: _327  and  _328
REMARK  134  A    between atoms: _331  and  _333
REMARK  135  A    between atoms: _333  and  _334
REMARK  136  A    between atoms: _333  and  _336
REMARK  137  A    between atoms: _336  and  _337
REMARK  138  A    between atoms: _340  and  _342
REMARK  139  A    between atoms: _342  and  _343
REMARK  140  A    between atoms: _345  and  _347
REMARK  141  A    between atoms: _347  and  _348
REMARK  142  A    between atoms: _351  and  _353
REMARK  143  A    between atoms: _353  and  _354
REMARK  144  A    between atoms: _353  and  _356
REMARK  145  A    between atoms: _356  and  _357
REMARK  146  A    between atoms: _360  and  _362
REMARK  147  A    between atoms: _362  and  _363
REMARK  148  A    between atoms: _362  and  _365
REMARK  149  A    between atoms: _365  and  _366
REMARK  150  A    between atoms: _369  and  _371
REMARK  151  A    between atoms: _371  and  _372
REMARK  152  A    between atoms: _371  and  _374
REMARK  153  A    between atoms: _374  and  _375
REMARK  154  A    between atoms: _378  and  _380
REMARK  155  A    between atoms: _380  and  _381
REMARK  156  A    between atoms: _380  and  _383
REMARK  157  A    between atoms: _386  and  _388
REMARK  158  A    between atoms: _388  and  _389
REMARK  159  A    between atoms: _388  and  _391
REMARK  160  A    between atoms: _391  and  _392
REMARK  161  A    between atoms: _392  and  _393
REMARK  162  A    between atoms: _393  and  _394
REMARK  163  A    between atoms: _394  and  _395
REMARK  164  A    between atoms: _399  and  _401
REMARK  165  A    between atoms: _401  and  _402
REMARK  166  A    between atoms: _401  and  _404
REMARK  167  A    between atoms: _404  and  _405
REMARK  168  A    between atoms: _408  and  _410
REMARK  169  A    between atoms: _410  and  _411
REMARK  170  A    between atoms: _413  and  _415
REMARK  171  A    between atoms: _415  and  _416
REMARK  172  A    between atoms: _418  and  _420
REMARK  173  A    between atoms: _420  and  _421
REMARK  174  A    between atoms: _420  and  _423
REMARK  175  A    between atoms: _423  and  _424
REMARK  176  A    between atoms: _427  and  _429
REMARK  177  A    between atoms: _429  and  _430
REMARK  178  A    between atoms: _432  and  _434
REMARK  179  A    between atoms: _434  and  _435
REMARK  180  A    between atoms: _437  and  _439
REMARK  181  A    between atoms: _439  and  _440
REMARK  182  A    between atoms: _439  and  _442
REMARK  183  A    between atoms: _442  and  _443
REMARK  184  A    between atoms: _449  and  _451
REMARK  185  A    between atoms: _451  and  _452
REMARK  186  A    between atoms: _451  and  _454
REMARK  187  A    between atoms: _454  and  _455
REMARK  188  A    between atoms: _458  and  _460
REMARK  189  A    between atoms: _460  and  _461
REMARK  190  A    between atoms: _460  and  _463
REMARK  191  A    between atoms: _463  and  _464
REMARK  192  A    between atoms: _468  and  _469
REMARK  193  A    between atoms: _474  and  _476
REMARK  194  A    between atoms: _476  and  _477
REMARK  195  A    between atoms: _476  and  _479
REMARK  196  A    between atoms: _479  and  _480
REMARK  197  A    between atoms: _484  and  _485
REMARK  198  A    between atoms: _490  and  _492
REMARK  199  A    between atoms: _492  and  _493
REMARK  200  A    between atoms: _496  and  _498
REMARK  201  A    between atoms: _498  and  _499
REMARK  202  A    between atoms: _498  and  _501
REMARK  203  A    between atoms: _501  and  _502
REMARK  204  A    between atoms: _507  and  _509
REMARK  205  A    between atoms: _509  and  _510
REMARK  206  A    between atoms: _509  and  _512
REMARK  207  A    between atoms: _512  and  _513
REMARK  208  A    between atoms: _516  and  _518
REMARK  209  A    between atoms: _518  and  _519
REMARK  210  A    between atoms: _518  and  _521
REMARK  211  A    between atoms: _521  and  _522
REMARK  212  A    between atoms: _525  and  _527
REMARK  213  A    between atoms: _527  and  _528
REMARK  214  A    between atoms: _530  and  _532
REMARK  215  A    between atoms: _532  and  _533
REMARK  216  A    between atoms: _532  and  _535
REMARK  217  A    between atoms: _535  and  _536
REMARK  218  A    between atoms: _536  and  _537
REMARK  219  A    between atoms: _537  and  _538
REMARK                            x       y       z     vdW  Elec       q    Type
REMARK                         _______ _______ _______ _____ _____    ______ ____
ROOT
ATOM      1  C   GLY A   5       5.569  -1.882  20.549  0.00  0.00    +0.243 C 
ATOM      2  N   ALA A   6       6.847  -1.567  20.644  0.00  0.00    -0.297 N 
ATOM      3  H   ALA A   6       7.166  -0.646  21.007  0.00  0.00    +0.150 HD
ATOM      4  O   GLY A   5       5.189  -2.889  19.977  0.00  0.00    -0.273 OA
ENDROOT
BRANCH   2   5
ATOM      5  CA  ALA A   6       7.767  -2.580  20.213  0.00  0.00    +0.149 C 
ATOM      6  CB  ALA A   6       8.898  -1.961  19.386  0.00  0.00    +0.031 C 
BRANCH   5   7
ATOM      7  C   ALA A   6       8.287  -3.264  21.457  0.00  0.00    +0.241 C 
ATOM      8  O   ALA A   6       8.677  -2.633  22.424  0.00  0.00    -0.273 OA
ATOM      9  N   ASP A   7       8.319  -4.564  21.392  0.00  0.00    -0.297 N 
ATOM     10  H   ASP A   7       7.839  -5.063  20.616  0.00  0.00    +0.150 HD
BRANCH   9  11
ATOM     11  CA  ASP A   7       9.029  -5.306  22.409  0.00  0.00    +0.160 C 
BRANCH  11  12
ATOM     12  C   ASP A   7      10.561  -5.200  22.396  0.00  0.00    +0.241 C 
ATOM     13  O   ASP A   7      11.203  -5.261  23.442  0.00  0.00    -0.273 OA
ATOM     14  N   ASP A   8      11.118  -5.101  21.181  0.00  0.00    -0.297 N 
ATOM     15  H   ASP A   8      10.500  -4.982  20.353  0.00  0.00    +0.150 HD
BRANCH  14  16
ATOM     16  CA  ASP A   8      12.558  -5.155  20.981  0.00  0.00    +0.160 C 
BRANCH  16  17
ATOM     17  C   ASP A   8      13.026  -3.907  20.295  0.00  0.00    +0.241 C 
ATOM     18  N   THR A   9      14.328  -3.680  20.290  0.00  0.00    -0.295 N 
ATOM     19  H   THR A   9      14.957  -4.324  20.811  0.00  0.00    +0.150 HD
ATOM     20  O   ASP A   8      12.211  -3.192  19.753  0.00  0.00    -0.273 OA
BRANCH  18  21
ATOM     21  CA  THR A   9      14.902  -2.551  19.573  0.00  0.00    +0.176 C 
BRANCH  21  22
ATOM     22  C   THR A   9      15.441  -2.983  18.221  0.00  0.00    +0.243 C 
ATOM     23  O   THR A   9      16.170  -3.966  18.196  0.00  0.00    -0.273 OA
ATOM     24  N   VAL A  10      15.066  -2.276  17.127  0.00  0.00    -0.298 N 
ATOM     25  H   VAL A  10      14.425  -1.465  17.238  0.00  0.00    +0.150 HD
BRANCH  24  26
ATOM     26  CA  VAL A  10      15.548  -2.635  15.788  0.00  0.00    +0.137 C 
BRANCH  26  27
ATOM     27  CB  VAL A  10      14.405  -3.018  14.853  0.00  0.00    +0.026 C 
ATOM     28  CG2 VAL A  10      13.507  -4.045  15.501  0.00  0.00    +0.002 C 
ATOM     29  CG1 VAL A  10      14.934  -3.643  13.574  0.00  0.00    +0.002 C 
ENDBRANCH  26  27
BRANCH  26  30
ATOM     30  C   VAL A  10      16.243  -1.480  15.160  0.00  0.00    +0.227 C 
ATOM     31  O   VAL A  10      15.704  -0.397  15.185  0.00  0.00    -0.286 OA
ENDBRANCH  26  30
ENDBRANCH  24  26
ENDBRANCH  21  22
BRANCH  21  32
ATOM     32  CB  THR A   9      16.038  -2.012  20.478  0.00  0.00    +0.137 C 
ATOM     33  CG2 THR A   9      16.908  -0.932  19.842  0.00  0.00    +0.034 C 
BRANCH  32  34
ATOM     34  OG1 THR A   9      15.393  -1.518  21.659  0.00  0.00    -0.382 OA
ATOM     35  HG1 THR A   9      14.902  -2.257  22.099  0.00  0.00    +0.210 HD
ENDBRANCH  32  34
ENDBRANCH  21  32
ENDBRANCH  18  21
ENDBRANCH  16  17
BRANCH  16  36
ATOM     36  CB  ASP A   8      12.863  -6.246  20.014  0.00  0.00    +0.143 C 
BRANCH  36  37
ATOM     37  CG  ASP A   8      12.423  -7.581  20.521  0.00  0.00    +0.367 C 
ATOM     38  OD2 ASP A   8      12.828  -7.989  21.612  0.00  0.00    -0.246 OA
ATOM     39  OD1 ASP A   8      11.656  -8.212  19.803  0.00  0.00    -0.246 OA
ENDBRANCH  36  37
ENDBRANCH  16  36
ENDBRANCH  14  16
ENDBRANCH  11  12
BRANCH  11  40
ATOM     40  CB  ASP A   7       8.707  -6.762  22.172  0.00  0.00    +0.143 C 
BRANCH  40  41
ATOM     41  CG  ASP A   7       7.380  -7.203  22.698  0.00  0.00    +0.367 C 
ATOM     42  OD2 ASP A   7       6.618  -6.392  23.246  0.00  0.00    -0.246 OA
ATOM     43  OD1 ASP A   7       7.127  -8.404  22.551  0.00  0.00    -0.246 OA
ENDBRANCH  40  41
ENDBRANCH  11  40
ENDBRANCH   9  11
ENDBRANCH   5   7
ENDBRANCH   2   5
BRANCH   1  44
ATOM     44  CA  GLY A   5       4.578  -0.903  21.185  0.00  0.00    +0.176 C 
BRANCH  44  47
ATOM     45  C   THR A   4       5.435   0.440  22.920  0.00  0.00    +0.243 C 
ATOM     46  O   THR A   4       5.095  -0.443  23.699  0.00  0.00    -0.273 OA
ATOM     47  N   GLY A   5       5.181   0.346  21.633  0.00  0.00    -0.295 N 
ATOM     48  H   GLY A   5       5.398   1.119  20.972  0.00  0.00    +0.150 HD
BRANCH  45  49
ATOM     49  CA  THR A   4       6.138   1.726  23.357  0.00  0.00    +0.176 C 
BRANCH  49  51
ATOM     50  C   ASP A   3       7.767   2.189  21.660  0.00  0.00    +0.241 C 
ATOM     51  N   THR A   4       6.716   2.609  22.327  0.00  0.00    -0.295 N 
ATOM     52  H   THR A   4       6.301   3.543  22.133  0.00  0.00    +0.150 HD
ATOM     53  O   ASP A   3       8.214   1.086  21.853  0.00  0.00    -0.273 OA
BRANCH  50  54
ATOM     54  CA  ASP A   3       8.322   3.073  20.571  0.00  0.00    +0.160 C 
BRANCH  54  56
ATOM     55  C   LEU A   2       9.377   5.168  20.728  0.00  0.00    +0.241 C 
ATOM     56  N   ASP A   3       9.430   3.882  21.024  0.00  0.00    -0.297 N 
ATOM     57  H   ASP A   3      10.226   3.474  21.554  0.00  0.00    +0.150 HD
ATOM     58  O   LEU A   2       8.364   5.733  20.328  0.00  0.00    -0.273 OA
BRANCH  55  59
ATOM     59  CA  LEU A   2      10.680   5.905  20.859  0.00  0.00    +0.149 C 
BRANCH  59  61
ATOM     60  C   LEU A   1      11.552   5.838  18.653  0.00  0.00    +0.238 C 
ATOM     61  N   LEU A   2      10.983   6.573  19.596  0.00  0.00    -0.297 N 
ATOM     62  H   LEU A   2      10.762   7.578  19.445  0.00  0.00    +0.150 HD
ATOM     63  O   LEU A   1      11.931   4.683  18.826  0.00  0.00    -0.274 OA
BRANCH  60  64
ATOM     64  CA  LEU A   1      11.758   6.476  17.323  0.00  0.00    +0.145 C 
BRANCH  64  65
ATOM     65  N   LEU A   1      13.119   6.144  16.898  0.00  0.00    -0.238 NA
ATOM     66  H   LEU A   1      13.324   5.210  16.489  0.00  0.00    +0.142 HD
ENDBRANCH  64  65
BRANCH  64  67
ATOM     67  CB  LEU A   1      10.881   5.790  16.335  0.00  0.00    +0.026 C 
BRANCH  67  68
ATOM     68  CG  LEU A   1       9.432   6.058  16.269  0.00  0.00    +0.002 C 
ATOM     69  CD2 LEU A   1       9.116   7.501  15.911  0.00  0.00    +0.000 C 
ATOM     70  CD1 LEU A   1       8.943   5.151  15.178  0.00  0.00    +0.000 C 
ENDBRANCH  67  68
ENDBRANCH  64  67
ENDBRANCH  60  64
ENDBRANCH  59  61
BRANCH  59  71
ATOM     71  CB  LEU A   2      10.638   6.906  22.003  0.00  0.00    +0.029 C 
BRANCH  71  72
ATOM     72  CG  LEU A   2      11.867   7.803  22.212  0.00  0.00    +0.002 C 
ATOM     73  CD2 LEU A   2      11.496   8.943  23.140  0.00  0.00    +0.000 C 
ATOM     74  CD1 LEU A   2      13.101   7.011  22.694  0.00  0.00    +0.000 C 
ENDBRANCH  71  72
ENDBRANCH  59  71
ENDBRANCH  55  59
ENDBRANCH  54  56
BRANCH  54  75
ATOM     75  CB  ASP A   3       8.895   2.284  19.413  0.00  0.00    +0.143 C 
BRANCH  75  76
ATOM     76  CG  ASP A   3       7.829   1.586  18.586  0.00  0.00    +0.367 C 
ATOM     77  OD2 ASP A   3       6.709   1.388  19.069  0.00  0.00    -0.246 OA
ATOM     78  OD1 ASP A   3       8.128   1.231  17.439  0.00  0.00    -0.246 OA
ENDBRANCH  75  76
ENDBRANCH  54  75
ENDBRANCH  50  54
ENDBRANCH  49  51
BRANCH  49  79
ATOM     79  CB  THR A   4       5.156   2.537  24.182  0.00  0.00    +0.137 C 
ATOM     80  CG2 THR A   4       5.817   3.695  24.880  0.00  0.00    +0.034 C 
BRANCH  79  81
ATOM     81  OG1 THR A   4       4.097   2.989  23.347  0.00  0.00    -0.382 OA
ATOM     82  HG1 THR A   4       3.633   2.208  22.953  0.00  0.00    +0.210 HD
ENDBRANCH  79  81
ENDBRANCH  49  79
ENDBRANCH  45  49
ENDBRANCH  44  47
ENDBRANCH   1  44
TORSDOF 35
REMARK  Name = ../refined-set-2016/1hvs/1hvs_pocket.pdb
REMARK  219 active torsions:
REMARK  status: ('A' for Active; 'I' for Inactive)
REMARK    1  A    between atoms: _1  and  _3
REMARK    2  A    between atoms: _3  and  _4
REMARK    3  A    between atoms: _3  and  _6
REMARK    4  A    between atoms: _6  and  _7
REMARK    5  A    between atoms: _7  and  _8
REMARK    6  A    between atoms: _8  and  _9
REMARK    7  A    between atoms: _19  and  _20
REMARK    8  A    between atoms: _25  and  _27
REMARK    9  A    between atoms: _27  and  _28
REMARK   10  A    between atoms: _27  and  _30
REMARK   11  A    between atoms: _30  and  _31
REMARK   12  A    between atoms: _34  and  _36
REMARK   13  A    between atoms: _36  and  _37
REMARK   14  A    between atoms: _36  and  _39
REMARK   15  A    between atoms: _39  and  _40
REMARK   16  A    between atoms: _43  and  _45
REMARK   17  A    between atoms: _45  and  _46
REMARK   18  A    between atoms: _45  and  _48
REMARK   19  A    between atoms: _48  and  _49
REMARK   20  A    between atoms: _52  and  _54
REMARK   21  A    between atoms: _54  and  _55
REMARK   22  A    between atoms: _54  and  _57
REMARK   23  A    between atoms: _57  and  _58
REMARK   24  A    between atoms: _61  and  _63
REMARK   25  A    between atoms: _63  and  _64
REMARK   26  A    between atoms: _63  and  _66
REMARK   27  A    between atoms: _66  and  _67
REMARK   28  A    between atoms: _70  and  _72
REMARK   29  A    between atoms: _72  and  _73
REMARK   30  A    between atoms: _75  and  _77
REMARK   31  A    between atoms: _77  and  _78
REMARK   32  A    between atoms: _81  and  _83
REMARK   33  A    between atoms: _83  and  _84
REMARK   34  A    between atoms: _83  and  _86
REMARK   35  A    between atoms: _86  and  _87
REMARK   36  A    between atoms: _90  and  _92
REMARK   37  A    between atoms: _92  and  _93
REMARK   38  A    between atoms: _92  and  _95
REMARK   39  A    between atoms: _95  and  _96
REMARK   40  A    between atoms: _99  and  _101
REMARK   41  A    between atoms: _101  and  _102
REMARK   42  A    between atoms: _101  and  _104
REMARK   43  A    between atoms: _104  and  _105
REMARK   44  A    between atoms: _108  and  _110
REMARK   45  A    between atoms: _110  and  _111
REMARK   46  A    between atoms: _110  and  _113
REMARK   47  A    between atoms: _116  and  _118
REMARK   48  A    between atoms: _118  and  _119
REMARK   49  A    between atoms: _118  and  _121
REMARK   50  A    between atoms: _121  and  _122
REMARK   51  A    between atoms: _122  and  _123
REMARK   52  A    between atoms: _123  and  _124
REMARK   53  A    between atoms: _124  and  _125
REMARK   54  A    between atoms: _129  and  _131
REMARK   55  A    between atoms: _131  and  _132
REMARK   56  A    between atoms: _131  and  _134
REMARK   57  A    between atoms: _134  and  _135
REMARK   58  A    between atoms: _138  and  _140
REMARK   59  A    between atoms: _140  and  _141
REMARK   60  A    between atoms: _143  and  _145
REMARK   61  A    between atoms: _145  and  _146
REMARK   62  A    between atoms: _148  and  _150
REMARK   63  A    between atoms: _150  and  _151
REMARK   64  A    between atoms: _150  and  _153
REMARK   65  A    between atoms: _153  and  _154
REMARK   66  A    between atoms: _157  and  _159
REMARK   67  A    between atoms: _159  and  _160
REMARK   68  A    between atoms: _162  and  _164
REMARK   69  A    between atoms: _164  and  _165
REMARK   70  A    between atoms: _167  and  _169
REMARK   71  A    between atoms: _169  and  _170
REMARK   72  A    between atoms: _169  and  _172
REMARK   73  A    between atoms: _172  and  _173
REMARK   74  A    between atoms: _179  and  _181
REMARK   75  A    between atoms: _181  and  _182
REMARK   76  A    between atoms: _181  and  _184
REMARK   77  A    between atoms: _184  and  _185
REMARK   78  A    between atoms: _188  and  _190
REMARK   79  A    between atoms: _190  and  _191
REMARK   80  A    between atoms: _190  and  _193
REMARK   81  A    between atoms: _196  and  _198
REMARK   82  A    between atoms: _198  and  _199
REMARK   83  A    between atoms: _198  and  _201
REMARK   84  A    between atoms: _201  and  _202
REMARK   85  A    between atoms: _205  and  _207
REMARK   86  A    between atoms: _207  and  _208
REMARK   87  A    between atoms: _207  and  _210
REMARK   88  A    between atoms: _210  and  _211
REMARK   89  A    between atoms: _215  and  _216
REMARK   90  A    between atoms: _221  and  _223
REMARK   91  A    between atoms: _223  and  _224
REMARK   92  A    between atoms: _227  and  _229
REMARK   93  A    between atoms: _229  and  _230
REMARK   94  A    between atoms: _229  and  _232
REMARK   95  A    between atoms: _232  and  _233
REMARK   96  A    between atoms: _238  and  _240
REMARK   97  A    between atoms: _240  and  _241
REMARK   98  A    between atoms: _240  and  _243
REMARK   99  A    between atoms: _243  and  _244
REMARK  100  A    between atoms: _247  and  _249
REMARK  101  A    between atoms: _249  and  _250
REMARK  102  A    between atoms: _249  and  _252
REMARK  103  A    between atoms: _252  and  _253
REMARK  104  A    between atoms: _256  and  _258
REMARK  105  A    between atoms: _258  and  _259
REMARK  106  A    between atoms: _261  and  _263
REMARK  107  A    between atoms: _263  and  _264
REMARK  108  A    between atoms: _263  and  _266
REMARK  109  A    between atoms: _266  and  _267
REMARK  110  A    between atoms: _267  and  _268
REMARK  111  A    between atoms: _268  and  _269
REMARK  112  A    between atoms: _278  and  _280
REMARK  113  A    between atoms: _280  and  _281
REMARK  114  A    between atoms: _280  and  _283
REMARK  115  A    between atoms: _283  and  _284
REMARK  116  A    between atoms: _284  and  _285
REMARK  117  A    between atoms: _285  and  _286
REMARK  118  A    between atoms: _295  and  _297
REMARK  119  A    between atoms: _297  and  _298
REMARK  120  A    between atoms: _297  and  _300
REMARK  121  A    between atoms: _300  and  _301
REMARK  122  A    between atoms: _304  and  _306
REMARK  123  A    between atoms: _306  and  _307
REMARK  124  A    between atoms: _306  and  _309
REMARK  125  A    between atoms: _309  and  _310
REMARK  126  A    between atoms: _313  and  _315
REMARK  127  A    between atoms: _315  and  _316
REMARK  128  A    between atoms: _315  and  _318
REMARK  129  A    between atoms: _318  and  _319
REMARK  130  A    between atoms: _322  and  _324
REMARK  131  A    between atoms: _324  and  _325
REMARK  132  A    between atoms: _324  and  _327
REMARK  133  A    between atoms: _327  and  _328
REMARK  134  A    between atoms: _331  and  _333
REMARK  135  A    between atoms: _333  and  _334
REMARK  136  A    between atoms: _333  and  _336
REMARK  137  A    between atoms: _336  and  _337
REMARK  138  A    between atoms: _340  and  _342
REMARK  139  A    between atoms: _342  and  _343
REMARK  140  A    between atoms: _345  and  _347
REMARK  141  A    between atoms: _347  and  _348
REMARK  142  A    between atoms: _351  and  _353
REMARK  143  A    between atoms: _353  and  _354
REMARK  144  A    between atoms: _353  and  _356
REMARK  145  A    between atoms: _356  and  _357
REMARK  146  A    between atoms: _360  and  _362
REMARK  147  A    between atoms: _362  and  _363
REMARK  148  A    between atoms: _362  and  _365
REMARK  149  A    between atoms: _365  and  _366
REMARK  150  A    between atoms: _369  and  _371
REMARK  151  A    between atoms: _371  and  _372
REMARK  152  A    between atoms: _371  and  _374
REMARK  153  A    between atoms: _374  and  _375
REMARK  154  A    between atoms: _378  and  _380
REMARK  155  A    between atoms: _380  and  _381
REMARK  156  A    between atoms: _380  and  _383
REMARK  157  A    between atoms: _386  and  _388
REMARK  158  A    between atoms: _388  and  _389
REMARK  159  A    between atoms: _388  and  _391
REMARK  160  A    between atoms: _391  and  _392
REMARK  161  A    between atoms: _392  and  _393
REMARK  162  A    between atoms: _393  and  _394
REMARK  163  A    between atoms: _394  and  _395
REMARK  164  A    between atoms: _399  and  _401
REMARK  165  A    between atoms: _401  and  _402
REMARK  166  A    between atoms: _401  and  _404
REMARK  167  A    between atoms: _404  and  _405
REMARK  168  A    between atoms: _408  and  _410
REMARK  169  A    between atoms: _410  and  _411
REMARK  170  A    between atoms: _413  and  _415
REMARK  171  A    between atoms: _415  and  _416
REMARK  172  A    between atoms: _418  and  _420
REMARK  173  A    between atoms: _420  and  _421
REMARK  174  A    between atoms: _420  and  _423
REMARK  175  A    between atoms: _423  and  _424
REMARK  176  A    between atoms: _427  and  _429
REMARK  177  A    between atoms: _429  and  _430
REMARK  178  A    between atoms: _432  and  _434
REMARK  179  A    between atoms: _434  and  _435
REMARK  180  A    between atoms: _437  and  _439
REMARK  181  A    between atoms: _439  and  _440
REMARK  182  A    between atoms: _439  and  _442
REMARK  183  A    between atoms: _442  and  _443
REMARK  184  A    between atoms: _449  and  _451
REMARK  185  A    between atoms: _451  and  _452
REMARK  186  A    between atoms: _451  and  _454
REMARK  187  A    between atoms: _454  and  _455
REMARK  188  A    between atoms: _458  and  _460
REMARK  189  A    between atoms: _460  and  _461
REMARK  190  A    between atoms: _460  and  _463
REMARK  191  A    between atoms: _463  and  _464
REMARK  192  A    between atoms: _468  and  _469
REMARK  193  A    between atoms: _474  and  _476
REMARK  194  A    between atoms: _476  and  _477
REMARK  195  A    between atoms: _476  and  _479
REMARK  196  A    between atoms: _479  and  _480
REMARK  197  A    between atoms: _484  and  _485
REMARK  198  A    between atoms: _490  and  _492
REMARK  199  A    between atoms: _492  and  _493
REMARK  200  A    between atoms: _496  and  _498
REMARK  201  A    between atoms: _498  and  _499
REMARK  202  A    between atoms: _498  and  _501
REMARK  203  A    between atoms: _501  and  _502
REMARK  204  A    between atoms: _507  and  _509
REMARK  205  A    between atoms: _509  and  _510
REMARK  206  A    between atoms: _509  and  _512
REMARK  207  A    between atoms: _512  and  _513
REMARK  208  A    between atoms: _516  and  _518
REMARK  209  A    between atoms: _518  and  _519
REMARK  210  A    between atoms: _518  and  _521
REMARK  211  A    between atoms: _521  and  _522
REMARK  212  A    between atoms: _525  and  _527
REMARK  213  A    between atoms: _527  and  _528
REMARK  214  A    between atoms: _530  and  _532
REMARK  215  A    between atoms: _532  and  _533
REMARK  216  A    between atoms: _532  and  _535
REMARK  217  A    between atoms: _535  and  _536
REMARK  218  A    between atoms: _536  and  _537
REMARK  219  A    between atoms: _537  and  _538
REMARK                            x       y       z     vdW  Elec       q    Type
REMARK                         _______ _______ _______ _____ _____    ______ ____
ROOT
ATOM      1  CG  LYS A   1      15.514 -13.305  16.463  0.00  0.00    -0.000 C 
ENDROOT
BRANCH   1   2
ATOM      2  CB  LYS A   1      16.592 -12.941  15.470  0.00  0.00    +0.025 C 
BRANCH   2   3
ATOM      3  CA  LYS A   1      16.576 -13.884  14.284  0.00  0.00    +0.133 C 
BRANCH   3   4
ATOM      4  N   LYS A   1      17.898 -13.844  13.663  0.00  0.00    -0.239 NA
ATOM      5  H   LYS A   1      18.150 -13.136  12.944  0.00  0.00    +0.142 HD
ENDBRANCH   3   4
BRANCH   3   6
ATOM      6  C   LYS A   1      15.545 -13.481  13.251  0.00  0.00    +0.224 C 
ATOM      7  O   LYS A   1      15.908 -12.936  12.221  0.00  0.00    -0.287 OA
ENDBRANCH   3   6
ENDBRANCH   2   3
ENDBRANCH   1   2
BRANCH   1   8
ATOM      8  CD  LYS A   1      15.320 -12.169  17.437  0.00  0.00    -0.024 C 
BRANCH   8   9
ATOM      9  CE  LYS A   1      14.207 -12.581  18.385  0.00  0.00    -0.086 C 
BRANCH   9  10
ATOM     10  NZ  LYS A   1      14.074 -11.593  19.477  0.00  0.00    +0.380 N 
ATOM     11  HZ1 LYS A   1      13.309 -11.887  20.118  0.00  0.00    -0.089 HD
ATOM     12  HZ2 LYS A   1      14.969 -11.539  20.005  0.00  0.00    -0.089 HD
ATOM     13  HZ3 LYS A   1      13.851 -10.661  19.074  0.00  0.00    -0.089 HD
ENDBRANCH   9  10
ENDBRANCH   8   9
ENDBRANCH   1   8
TORSDOF 7
REMARK  Name = ../refined-set-2016/1hvs/1hvs_pocket.pdb
REMARK  219 active torsions:
REMARK  status: ('A' for Active; 'I' for Inactive)
REMARK    1  A    between atoms: _1  and  _3
REMARK    2  A    between atoms: _3  and  _4
REMARK    3  A    between atoms: _3  and  _6
REMARK    4  A    between atoms: _6  and  _7
REMARK    5  A    between atoms: _7  and  _8
REMARK    6  A    between atoms: _8  and  _9
REMARK    7  A    between atoms: _19  and  _20
REMARK    8  A    between atoms: _25  and  _27
REMARK    9  A    between atoms: _27  and  _28
REMARK   10  A    between atoms: _27  and  _30
REMARK   11  A    between atoms: _30  and  _31
REMARK   12  A    between atoms: _34  and  _36
REMARK   13  A    between atoms: _36  and  _37
REMARK   14  A    between atoms: _36  and  _39
REMARK   15  A    between atoms: _39  and  _40
REMARK   16  A    between atoms: _43  and  _45
REMARK   17  A    between atoms: _45  and  _46
REMARK   18  A    between atoms: _45  and  _48
REMARK   19  A    between atoms: _48  and  _49
REMARK   20  A    between atoms: _52  and  _54
REMARK   21  A    between atoms: _54  and  _55
REMARK   22  A    between atoms: _54  and  _57
REMARK   23  A    between atoms: _57  and  _58
REMARK   24  A    between atoms: _61  and  _63
REMARK   25  A    between atoms: _63  and  _64
REMARK   26  A    between atoms: _63  and  _66
REMARK   27  A    between atoms: _66  and  _67
REMARK   28  A    between atoms: _70  and  _72
REMARK   29  A    between atoms: _72  and  _73
REMARK   30  A    between atoms: _75  and  _77
REMARK   31  A    between atoms: _77  and  _78
REMARK   32  A    between atoms: _81  and  _83
REMARK   33  A    between atoms: _83  and  _84
REMARK   34  A    between atoms: _83  and  _86
REMARK   35  A    between atoms: _86  and  _87
REMARK   36  A    between atoms: _90  and  _92
REMARK   37  A    between atoms: _92  and  _93
REMARK   38  A    between atoms: _92  and  _95
REMARK   39  A    between atoms: _95  and  _96
REMARK   40  A    between atoms: _99  and  _101
REMARK   41  A    between atoms: _101  and  _102
REMARK   42  A    between atoms: _101  and  _104
REMARK   43  A    between atoms: _104  and  _105
REMARK   44  A    between atoms: _108  and  _110
REMARK   45  A    between atoms: _110  and  _111
REMARK   46  A    between atoms: _110  and  _113
REMARK   47  A    between atoms: _116  and  _118
REMARK   48  A    between atoms: _118  and  _119
REMARK   49  A    between atoms: _118  and  _121
REMARK   50  A    between atoms: _121  and  _122
REMARK   51  A    between atoms: _122  and  _123
REMARK   52  A    between atoms: _123  and  _124
REMARK   53  A    between atoms: _124  and  _125
REMARK   54  A    between atoms: _129  and  _131
REMARK   55  A    between atoms: _131  and  _132
REMARK   56  A    between atoms: _131  and  _134
REMARK   57  A    between atoms: _134  and  _135
REMARK   58  A    between atoms: _138  and  _140
REMARK   59  A    between atoms: _140  and  _141
REMARK   60  A    between atoms: _143  and  _145
REMARK   61  A    between atoms: _145  and  _146
REMARK   62  A    between atoms: _148  and  _150
REMARK   63  A    between atoms: _150  and  _151
REMARK   64  A    between atoms: _150  and  _153
REMARK   65  A    between atoms: _153  and  _154
REMARK   66  A    between atoms: _157  and  _159
REMARK   67  A    between atoms: _159  and  _160
REMARK   68  A    between atoms: _162  and  _164
REMARK   69  A    between atoms: _164  and  _165
REMARK   70  A    between atoms: _167  and  _169
REMARK   71  A    between atoms: _169  and  _170
REMARK   72  A    between atoms: _169  and  _172
REMARK   73  A    between atoms: _172  and  _173
REMARK   74  A    between atoms: _179  and  _181
REMARK   75  A    between atoms: _181  and  _182
REMARK   76  A    between atoms: _181  and  _184
REMARK   77  A    between atoms: _184  and  _185
REMARK   78  A    between atoms: _188  and  _190
REMARK   79  A    between atoms: _190  and  _191
REMARK   80  A    between atoms: _190  and  _193
REMARK   81  A    between atoms: _196  and  _198
REMARK   82  A    between atoms: _198  and  _199
REMARK   83  A    between atoms: _198  and  _201
REMARK   84  A    between atoms: _201  and  _202
REMARK   85  A    between atoms: _205  and  _207
REMARK   86  A    between atoms: _207  and  _208
REMARK   87  A    between atoms: _207  and  _210
REMARK   88  A    between atoms: _210  and  _211
REMARK   89  A    between atoms: _215  and  _216
REMARK   90  A    between atoms: _221  and  _223
REMARK   91  A    between atoms: _223  and  _224
REMARK   92  A    between atoms: _227  and  _229
REMARK   93  A    between atoms: _229  and  _230
REMARK   94  A    between atoms: _229  and  _232
REMARK   95  A    between atoms: _232  and  _233
REMARK   96  A    between atoms: _238  and  _240
REMARK   97  A    between atoms: _240  and  _241
REMARK   98  A    between atoms: _240  and  _243
REMARK   99  A    between atoms: _243  and  _244
REMARK  100  A    between atoms: _247  and  _249
REMARK  101  A    between atoms: _249  and  _250
REMARK  102  A    between atoms: _249  and  _252
REMARK  103  A    between atoms: _252  and  _253
REMARK  104  A    between atoms: _256  and  _258
REMARK  105  A    between atoms: _258  and  _259
REMARK  106  A    between atoms: _261  and  _263
REMARK  107  A    between atoms: _263  and  _264
REMARK  108  A    between atoms: _263  and  _266
REMARK  109  A    between atoms: _266  and  _267
REMARK  110  A    between atoms: _267  and  _268
REMARK  111  A    between atoms: _268  and  _269
REMARK  112  A    between atoms: _278  and  _280
REMARK  113  A    between atoms: _280  and  _281
REMARK  114  A    between atoms: _280  and  _283
REMARK  115  A    between atoms: _283  and  _284
REMARK  116  A    between atoms: _284  and  _285
REMARK  117  A    between atoms: _285  and  _286
REMARK  118  A    between atoms: _295  and  _297
REMARK  119  A    between atoms: _297  and  _298
REMARK  120  A    between atoms: _297  and  _300
REMARK  121  A    between atoms: _300  and  _301
REMARK  122  A    between atoms: _304  and  _306
REMARK  123  A    between atoms: _306  and  _307
REMARK  124  A    between atoms: _306  and  _309
REMARK  125  A    between atoms: _309  and  _310
REMARK  126  A    between atoms: _313  and  _315
REMARK  127  A    between atoms: _315  and  _316
REMARK  128  A    between atoms: _315  and  _318
REMARK  129  A    between atoms: _318  and  _319
REMARK  130  A    between atoms: _322  and  _324
REMARK  131  A    between atoms: _324  and  _325
REMARK  132  A    between atoms: _324  and  _327
REMARK  133  A    between atoms: _327  and  _328
REMARK  134  A    between atoms: _331  and  _333
REMARK  135  A    between atoms: _333  and  _334
REMARK  136  A    between atoms: _333  and  _336
REMARK  137  A    between atoms: _336  and  _337
REMARK  138  A    between atoms: _340  and  _342
REMARK  139  A    between atoms: _342  and  _343
REMARK  140  A    between atoms: _345  and  _347
REMARK  141  A    between atoms: _347  and  _348
REMARK  142  A    between atoms: _351  and  _353
REMARK  143  A    between atoms: _353  and  _354
REMARK  144  A    between atoms: _353  and  _356
REMARK  145  A    between atoms: _356  and  _357
REMARK  146  A    between atoms: _360  and  _362
REMARK  147  A    between atoms: _362  and  _363
REMARK  148  A    between atoms: _362  and  _365
REMARK  149  A    between atoms: _365  and  _366
REMARK  150  A    between atoms: _369  and  _371
REMARK  151  A    between atoms: _371  and  _372
REMARK  152  A    between atoms: _371  and  _374
REMARK  153  A    between atoms: _374  and  _375
REMARK  154  A    between atoms: _378  and  _380
REMARK  155  A    between atoms: _380  and  _381
REMARK  156  A    between atoms: _380  and  _383
REMARK  157  A    between atoms: _386  and  _388
REMARK  158  A    between atoms: _388  and  _389
REMARK  159  A    between atoms: _388  and  _391
REMARK  160  A    between atoms: _391  and  _392
REMARK  161  A    between atoms: _392  and  _393
REMARK  162  A    between atoms: _393  and  _394
REMARK  163  A    between atoms: _394  and  _395
REMARK  164  A    between atoms: _399  and  _401
REMARK  165  A    between atoms: _401  and  _402
REMARK  166  A    between atoms: _401  and  _404
REMARK  167  A    between atoms: _404  and  _405
REMARK  168  A    between atoms: _408  and  _410
REMARK  169  A    between atoms: _410  and  _411
REMARK  170  A    between atoms: _413  and  _415
REMARK  171  A    between atoms: _415  and  _416
REMARK  172  A    between atoms: _418  and  _420
REMARK  173  A    between atoms: _420  and  _421
REMARK  174  A    between atoms: _420  and  _423
REMARK  175  A    between atoms: _423  and  _424
REMARK  176  A    between atoms: _427  and  _429
REMARK  177  A    between atoms: _429  and  _430
REMARK  178  A    between atoms: _432  and  _434
REMARK  179  A    between atoms: _434  and  _435
REMARK  180  A    between atoms: _437  and  _439
REMARK  181  A    between atoms: _439  and  _440
REMARK  182  A    between atoms: _439  and  _442
REMARK  183  A    between atoms: _442  and  _443
REMARK  184  A    between atoms: _449  and  _451
REMARK  185  A    between atoms: _451  and  _452
REMARK  186  A    between atoms: _451  and  _454
REMARK  187  A    between atoms: _454  and  _455
REMARK  188  A    between atoms: _458  and  _460
REMARK  189  A    between atoms: _460  and  _461
REMARK  190  A    between atoms: _460  and  _463
REMARK  191  A    between atoms: _463  and  _464
REMARK  192  A    between atoms: _468  and  _469
REMARK  193  A    between atoms: _474  and  _476
REMARK  194  A    between atoms: _476  and  _477
REMARK  195  A    between atoms: _476  and  _479
REMARK  196  A    between atoms: _479  and  _480
REMARK  197  A    between atoms: _484  and  _485
REMARK  198  A    between atoms: _490  and  _492
REMARK  199  A    between atoms: _492  and  _493
REMARK  200  A    between atoms: _496  and  _498
REMARK  201  A    between atoms: _498  and  _499
REMARK  202  A    between atoms: _498  and  _501
REMARK  203  A    between atoms: _501  and  _502
REMARK  204  A    between atoms: _507  and  _509
REMARK  205  A    between atoms: _509  and  _510
REMARK  206  A    between atoms: _509  and  _512
REMARK  207  A    between atoms: _512  and  _513
REMARK  208  A    between atoms: _516  and  _518
REMARK  209  A    between atoms: _518  and  _519
REMARK  210  A    between atoms: _518  and  _521
REMARK  211  A    between atoms: _521  and  _522
REMARK  212  A    between atoms: _525  and  _527
REMARK  213  A    between atoms: _527  and  _528
REMARK  214  A    between atoms: _530  and  _532
REMARK  215  A    between atoms: _532  and  _533
REMARK  216  A    between atoms: _532  and  _535
REMARK  217  A    between atoms: _535  and  _536
REMARK  218  A    between atoms: _536  and  _537
REMARK  219  A    between atoms: _537  and  _538
REMARK                            x       y       z     vdW  Elec       q    Type
REMARK                         _______ _______ _______ _____ _____    ______ ____
ROOT
ATOM      1  C   ILE A   4       2.070  -6.396   9.354  0.00  0.00    +0.241 C 
ATOM      2  O   ILE A   4       1.041  -7.018   9.106  0.00  0.00    -0.273 OA
ATOM      3  N   GLY A   5       3.112  -6.340   8.535  0.00  0.00    -0.295 N 
ATOM      4  H   GLY A   5       4.006  -5.882   8.804  0.00  0.00    +0.150 HD
ENDROOT
BRANCH   3   5
ATOM      5  CA  GLY A   5       2.918  -6.965   7.232  0.00  0.00    +0.176 C 
BRANCH   5   6
ATOM      6  C   GLY A   5       3.731  -8.228   7.036  0.00  0.00    +0.243 C 
ATOM      7  N   GLY A   6       4.294  -8.774   8.105  0.00  0.00    -0.295 N 
ATOM      8  H   GLY A   6       4.116  -8.394   9.057  0.00  0.00    +0.150 HD
ATOM      9  O   GLY A   5       3.862  -8.722   5.937  0.00  0.00    -0.273 OA
BRANCH   7  10
ATOM     10  CA  GLY A   6       5.168  -9.921   7.908  0.00  0.00    +0.176 C 
BRANCH  10  11
ATOM     11  C   GLY A   6       6.414  -9.869   8.761  0.00  0.00    +0.243 C 
ATOM     12  O   GLY A   6       6.509  -9.175   9.773  0.00  0.00    -0.273 OA
ATOM     13  N   PHE A   7       7.363 -10.684   8.349  0.00  0.00    -0.297 N 
ATOM     14  H   PHE A   7       7.300 -11.144   7.418  0.00  0.00    +0.150 HD
BRANCH  13  15
ATOM     15  CA  PHE A   7       8.498 -10.927   9.220  0.00  0.00    +0.153 C 
BRANCH  15  16
ATOM     16  C   PHE A   7       9.701 -10.495   8.460  0.00  0.00    +0.241 C 
ATOM     17  N   ILE A   8      10.751 -10.136   9.173  0.00  0.00    -0.298 N 
ATOM     18  H   ILE A   8      10.694 -10.104  10.211  0.00  0.00    +0.150 HD
ATOM     19  O   PHE A   7       9.654 -10.468   7.239  0.00  0.00    -0.273 OA
BRANCH  17  20
ATOM     20  CA  ILE A   8      11.995  -9.783   8.492  0.00  0.00    +0.137 C 
BRANCH  20  21
ATOM     21  CB  ILE A   8      12.273  -8.281   8.550  0.00  0.00    +0.026 C 
ATOM     22  CG2 ILE A   8      11.368  -7.441   7.656  0.00  0.00    +0.002 C 
BRANCH  21  23
ATOM     23  CG1 ILE A   8      12.301  -7.676   9.955  0.00  0.00    +0.002 C 
ATOM     24  CD1 ILE A   8      13.018  -6.304   9.989  0.00  0.00    +0.000 C 
ENDBRANCH  21  23
ENDBRANCH  20  21
BRANCH  20  25
ATOM     25  C   ILE A   8      13.142 -10.445   9.220  0.00  0.00    +0.227 C 
ATOM     26  O   ILE A   8      13.041 -10.735  10.408  0.00  0.00    -0.286 OA
ENDBRANCH  20  25
ENDBRANCH  17  20
ENDBRANCH  15  16
BRANCH  15  27
ATOM     27  CB  PHE A   7       8.594 -12.433   9.526  0.00  0.00    +0.055 C 
BRANCH  27  28
ATOM     28  CG  PHE A   7       7.665 -12.855  10.645  0.00  0.00    -0.020 A 
ATOM     29  CD2 PHE A   7       8.182 -13.029  11.921  0.00  0.00    -0.004 A 
ATOM     30  CE2 PHE A   7       7.373 -13.429  12.979  0.00  0.00    -0.000 A 
ATOM     31  CZ  PHE A   7       6.029 -13.663  12.727  0.00  0.00    -0.000 A 
ATOM     32  CE1 PHE A   7       5.506 -13.494  11.457  0.00  0.00    -0.000 A 
ATOM     33  CD1 PHE A   7       6.318 -13.085  10.411  0.00  0.00    -0.004 A 
ENDBRANCH  27  28
ENDBRANCH  15  27
ENDBRANCH  13  15
ENDBRANCH  10  11
ENDBRANCH   7  10
ENDBRANCH   5   6
ENDBRANCH   3   5
BRANCH   1  34
ATOM     34  CA  ILE A   4       2.259  -5.638  10.651  0.00  0.00    +0.149 C 
BRANCH  34  37
ATOM     35  C   GLY A   3       4.048  -6.661  11.662  0.00  0.00    +0.243 C 
ATOM     36  O   GLY A   3       3.479  -7.710  11.465  0.00  0.00    -0.273 OA
ATOM     37  N   ILE A   4       3.608  -5.545  11.178  0.00  0.00    -0.297 N 
ATOM     38  H   ILE A   4       4.166  -4.667  11.168  0.00  0.00    +0.150 HD
BRANCH  35  39
ATOM     39  CA  GLY A   3       5.288  -6.620  12.469  0.00  0.00    +0.176 C 
BRANCH  39  42
ATOM     40  C   GLY A   2       6.783  -8.304  13.226  0.00  0.00    +0.243 C 
ATOM     41  O   GLY A   2       7.031  -7.707  14.270  0.00  0.00    -0.273 OA
ATOM     42  N   GLY A   3       5.883  -7.933  12.334  0.00  0.00    -0.295 N 
ATOM     43  H   GLY A   3       5.609  -8.566  11.556  0.00  0.00    +0.150 HD
BRANCH  40  44
ATOM     44  CA  GLY A   2       7.520  -9.545  12.841  0.00  0.00    +0.176 C 
BRANCH  44  46
ATOM     45  C   ILE A   1       9.807  -9.992  13.110  0.00  0.00    +0.238 C 
ATOM     46  N   GLY A   2       8.666  -9.741  13.700  0.00  0.00    -0.296 N 
ATOM     47  H   GLY A   2       8.588  -9.685  14.736  0.00  0.00    +0.150 HD
ATOM     48  O   ILE A   1      10.006  -9.910  11.901  0.00  0.00    -0.274 OA
BRANCH  45  49
ATOM     49  CA  ILE A   1      10.881 -10.450  14.038  0.00  0.00    +0.145 C 
BRANCH  49  50
ATOM     50  N   ILE A   1      11.835 -11.240  13.254  0.00  0.00    -0.238 NA
ATOM     51  H   ILE A   1      12.269 -10.829  12.403  0.00  0.00    +0.142 HD
ENDBRANCH  49  50
BRANCH  49  52
ATOM     52  CB  ILE A   1      11.494  -9.203  14.682  0.00  0.00    +0.025 C 
ATOM     53  CG2 ILE A   1      12.363  -9.558  15.843  0.00  0.00    +0.002 C 
BRANCH  52  54
ATOM     54  CG1 ILE A   1      12.252  -8.297  13.738  0.00  0.00    +0.002 C 
ATOM     55  CD1 ILE A   1      11.585  -6.912  13.718  0.00  0.00    +0.000 C 
ENDBRANCH  52  54
ENDBRANCH  49  52
ENDBRANCH  45  49
ENDBRANCH  44  46
ENDBRANCH  40  44
ENDBRANCH  39  42
ENDBRANCH  35  39
ENDBRANCH  34  37
BRANCH  34  56
ATOM     56  CB  ILE A   4       1.670  -4.215  10.653  0.00  0.00    +0.027 C 
ATOM     57  CG2 ILE A   4       1.823  -3.403   9.374  0.00  0.00    +0.002 C 
BRANCH  56  58
ATOM     58  CG1 ILE A   4       0.233  -4.199  11.107  0.00  0.00    +0.002 C 
ATOM     59  CD1 ILE A   4      -0.111  -2.768  11.493  0.00  0.00    +0.000 C 
ENDBRANCH  56  58
ENDBRANCH  34  56
ENDBRANCH   1  34
TORSDOF 24
REMARK  Name = ../refined-set-2016/1hvs/1hvs_pocket.pdb
REMARK  219 active torsions:
REMARK  status: ('A' for Active; 'I' for Inactive)
REMARK    1  A    between atoms: _1  and  _3
REMARK    2  A    between atoms: _3  and  _4
REMARK    3  A    between atoms: _3  and  _6
REMARK    4  A    between atoms: _6  and  _7
REMARK    5  A    between atoms: _7  and  _8
REMARK    6  A    between atoms: _8  and  _9
REMARK    7  A    between atoms: _19  and  _20
REMARK    8  A    between atoms: _25  and  _27
REMARK    9  A    between atoms: _27  and  _28
REMARK   10  A    between atoms: _27  and  _30
REMARK   11  A    between atoms: _30  and  _31
REMARK   12  A    between atoms: _34  and  _36
REMARK   13  A    between atoms: _36  and  _37
REMARK   14  A    between atoms: _36  and  _39
REMARK   15  A    between atoms: _39  and  _40
REMARK   16  A    between atoms: _43  and  _45
REMARK   17  A    between atoms: _45  and  _46
REMARK   18  A    between atoms: _45  and  _48
REMARK   19  A    between atoms: _48  and  _49
REMARK   20  A    between atoms: _52  and  _54
REMARK   21  A    between atoms: _54  and  _55
REMARK   22  A    between atoms: _54  and  _57
REMARK   23  A    between atoms: _57  and  _58
REMARK   24  A    between atoms: _61  and  _63
REMARK   25  A    between atoms: _63  and  _64
REMARK   26  A    between atoms: _63  and  _66
REMARK   27  A    between atoms: _66  and  _67
REMARK   28  A    between atoms: _70  and  _72
REMARK   29  A    between atoms: _72  and  _73
REMARK   30  A    between atoms: _75  and  _77
REMARK   31  A    between atoms: _77  and  _78
REMARK   32  A    between atoms: _81  and  _83
REMARK   33  A    between atoms: _83  and  _84
REMARK   34  A    between atoms: _83  and  _86
REMARK   35  A    between atoms: _86  and  _87
REMARK   36  A    between atoms: _90  and  _92
REMARK   37  A    between atoms: _92  and  _93
REMARK   38  A    between atoms: _92  and  _95
REMARK   39  A    between atoms: _95  and  _96
REMARK   40  A    between atoms: _99  and  _101
REMARK   41  A    between atoms: _101  and  _102
REMARK   42  A    between atoms: _101  and  _104
REMARK   43  A    between atoms: _104  and  _105
REMARK   44  A    between atoms: _108  and  _110
REMARK   45  A    between atoms: _110  and  _111
REMARK   46  A    between atoms: _110  and  _113
REMARK   47  A    between atoms: _116  and  _118
REMARK   48  A    between atoms: _118  and  _119
REMARK   49  A    between atoms: _118  and  _121
REMARK   50  A    between atoms: _121  and  _122
REMARK   51  A    between atoms: _122  and  _123
REMARK   52  A    between atoms: _123  and  _124
REMARK   53  A    between atoms: _124  and  _125
REMARK   54  A    between atoms: _129  and  _131
REMARK   55  A    between atoms: _131  and  _132
REMARK   56  A    between atoms: _131  and  _134
REMARK   57  A    between atoms: _134  and  _135
REMARK   58  A    between atoms: _138  and  _140
REMARK   59  A    between atoms: _140  and  _141
REMARK   60  A    between atoms: _143  and  _145
REMARK   61  A    between atoms: _145  and  _146
REMARK   62  A    between atoms: _148  and  _150
REMARK   63  A    between atoms: _150  and  _151
REMARK   64  A    between atoms: _150  and  _153
REMARK   65  A    between atoms: _153  and  _154
REMARK   66  A    between atoms: _157  and  _159
REMARK   67  A    between atoms: _159  and  _160
REMARK   68  A    between atoms: _162  and  _164
REMARK   69  A    between atoms: _164  and  _165
REMARK   70  A    between atoms: _167  and  _169
REMARK   71  A    between atoms: _169  and  _170
REMARK   72  A    between atoms: _169  and  _172
REMARK   73  A    between atoms: _172  and  _173
REMARK   74  A    between atoms: _179  and  _181
REMARK   75  A    between atoms: _181  and  _182
REMARK   76  A    between atoms: _181  and  _184
REMARK   77  A    between atoms: _184  and  _185
REMARK   78  A    between atoms: _188  and  _190
REMARK   79  A    between atoms: _190  and  _191
REMARK   80  A    between atoms: _190  and  _193
REMARK   81  A    between atoms: _196  and  _198
REMARK   82  A    between atoms: _198  and  _199
REMARK   83  A    between atoms: _198  and  _201
REMARK   84  A    between atoms: _201  and  _202
REMARK   85  A    between atoms: _205  and  _207
REMARK   86  A    between atoms: _207  and  _208
REMARK   87  A    between atoms: _207  and  _210
REMARK   88  A    between atoms: _210  and  _211
REMARK   89  A    between atoms: _215  and  _216
REMARK   90  A    between atoms: _221  and  _223
REMARK   91  A    between atoms: _223  and  _224
REMARK   92  A    between atoms: _227  and  _229
REMARK   93  A    between atoms: _229  and  _230
REMARK   94  A    between atoms: _229  and  _232
REMARK   95  A    between atoms: _232  and  _233
REMARK   96  A    between atoms: _238  and  _240
REMARK   97  A    between atoms: _240  and  _241
REMARK   98  A    between atoms: _240  and  _243
REMARK   99  A    between atoms: _243  and  _244
REMARK  100  A    between atoms: _247  and  _249
REMARK  101  A    between atoms: _249  and  _250
REMARK  102  A    between atoms: _249  and  _252
REMARK  103  A    between atoms: _252  and  _253
REMARK  104  A    between atoms: _256  and  _258
REMARK  105  A    between atoms: _258  and  _259
REMARK  106  A    between atoms: _261  and  _263
REMARK  107  A    between atoms: _263  and  _264
REMARK  108  A    between atoms: _263  and  _266
REMARK  109  A    between atoms: _266  and  _267
REMARK  110  A    between atoms: _267  and  _268
REMARK  111  A    between atoms: _268  and  _269
REMARK  112  A    between atoms: _278  and  _280
REMARK  113  A    between atoms: _280  and  _281
REMARK  114  A    between atoms: _280  and  _283
REMARK  115  A    between atoms: _283  and  _284
REMARK  116  A    between atoms: _284  and  _285
REMARK  117  A    between atoms: _285  and  _286
REMARK  118  A    between atoms: _295  and  _297
REMARK  119  A    between atoms: _297  and  _298
REMARK  120  A    between atoms: _297  and  _300
REMARK  121  A    between atoms: _300  and  _301
REMARK  122  A    between atoms: _304  and  _306
REMARK  123  A    between atoms: _306  and  _307
REMARK  124  A    between atoms: _306  and  _309
REMARK  125  A    between atoms: _309  and  _310
REMARK  126  A    between atoms: _313  and  _315
REMARK  127  A    between atoms: _315  and  _316
REMARK  128  A    between atoms: _315  and  _318
REMARK  129  A    between atoms: _318  and  _319
REMARK  130  A    between atoms: _322  and  _324
REMARK  131  A    between atoms: _324  and  _325
REMARK  132  A    between atoms: _324  and  _327
REMARK  133  A    between atoms: _327  and  _328
REMARK  134  A    between atoms: _331  and  _333
REMARK  135  A    between atoms: _333  and  _334
REMARK  136  A    between atoms: _333  and  _336
REMARK  137  A    between atoms: _336  and  _337
REMARK  138  A    between atoms: _340  and  _342
REMARK  139  A    between atoms: _342  and  _343
REMARK  140  A    between atoms: _345  and  _347
REMARK  141  A    between atoms: _347  and  _348
REMARK  142  A    between atoms: _351  and  _353
REMARK  143  A    between atoms: _353  and  _354
REMARK  144  A    between atoms: _353  and  _356
REMARK  145  A    between atoms: _356  and  _357
REMARK  146  A    between atoms: _360  and  _362
REMARK  147  A    between atoms: _362  and  _363
REMARK  148  A    between atoms: _362  and  _365
REMARK  149  A    between atoms: _365  and  _366
REMARK  150  A    between atoms: _369  and  _371
REMARK  151  A    between atoms: _371  and  _372
REMARK  152  A    between atoms: _371  and  _374
REMARK  153  A    between atoms: _374  and  _375
REMARK  154  A    between atoms: _378  and  _380
REMARK  155  A    between atoms: _380  and  _381
REMARK  156  A    between atoms: _380  and  _383
REMARK  157  A    between atoms: _386  and  _388
REMARK  158  A    between atoms: _388  and  _389
REMARK  159  A    between atoms: _388  and  _391
REMARK  160  A    between atoms: _391  and  _392
REMARK  161  A    between atoms: _392  and  _393
REMARK  162  A    between atoms: _393  and  _394
REMARK  163  A    between atoms: _394  and  _395
REMARK  164  A    between atoms: _399  and  _401
REMARK  165  A    between atoms: _401  and  _402
REMARK  166  A    between atoms: _401  and  _404
REMARK  167  A    between atoms: _404  and  _405
REMARK  168  A    between atoms: _408  and  _410
REMARK  169  A    between atoms: _410  and  _411
REMARK  170  A    between atoms: _413  and  _415
REMARK  171  A    between atoms: _415  and  _416
REMARK  172  A    between atoms: _418  and  _420
REMARK  173  A    between atoms: _420  and  _421
REMARK  174  A    between atoms: _420  and  _423
REMARK  175  A    between atoms: _423  and  _424
REMARK  176  A    between atoms: _427  and  _429
REMARK  177  A    between atoms: _429  and  _430
REMARK  178  A    between atoms: _432  and  _434
REMARK  179  A    between atoms: _434  and  _435
REMARK  180  A    between atoms: _437  and  _439
REMARK  181  A    between atoms: _439  and  _440
REMARK  182  A    between atoms: _439  and  _442
REMARK  183  A    between atoms: _442  and  _443
REMARK  184  A    between atoms: _449  and  _451
REMARK  185  A    between atoms: _451  and  _452
REMARK  186  A    between atoms: _451  and  _454
REMARK  187  A    between atoms: _454  and  _455
REMARK  188  A    between atoms: _458  and  _460
REMARK  189  A    between atoms: _460  and  _461
REMARK  190  A    between atoms: _460  and  _463
REMARK  191  A    between atoms: _463  and  _464
REMARK  192  A    between atoms: _468  and  _469
REMARK  193  A    between atoms: _474  and  _476
REMARK  194  A    between atoms: _476  and  _477
REMARK  195  A    between atoms: _476  and  _479
REMARK  196  A    between atoms: _479  and  _480
REMARK  197  A    between atoms: _484  and  _485
REMARK  198  A    between atoms: _490  and  _492
REMARK  199  A    between atoms: _492  and  _493
REMARK  200  A    between atoms: _496  and  _498
REMARK  201  A    between atoms: _498  and  _499
REMARK  202  A    between atoms: _498  and  _501
REMARK  203  A    between atoms: _501  and  _502
REMARK  204  A    between atoms: _507  and  _509
REMARK  205  A    between atoms: _509  and  _510
REMARK  206  A    between atoms: _509  and  _512
REMARK  207  A    between atoms: _512  and  _513
REMARK  208  A    between atoms: _516  and  _518
REMARK  209  A    between atoms: _518  and  _519
REMARK  210  A    between atoms: _518  and  _521
REMARK  211  A    between atoms: _521  and  _522
REMARK  212  A    between atoms: _525  and  _527
REMARK  213  A    between atoms: _527  and  _528
REMARK  214  A    between atoms: _530  and  _532
REMARK  215  A    between atoms: _532  and  _533
REMARK  216  A    between atoms: _532  and  _535
REMARK  217  A    between atoms: _535  and  _536
REMARK  218  A    between atoms: _536  and  _537
REMARK  219  A    between atoms: _537  and  _538
REMARK                            x       y       z     vdW  Elec       q    Type
REMARK                         _______ _______ _______ _____ _____    ______ ____
ROOT
ATOM      1  CA  LEU A   1      18.540  -6.336  16.344  0.00  0.00    +0.133 C 
ENDROOT
BRANCH   1   2
ATOM      2  N   LEU A   1      18.703  -5.563  17.564  0.00  0.00    -0.239 NA
ATOM      3  H   LEU A   1      18.039  -4.782  17.741  0.00  0.00    +0.142 HD
ENDBRANCH   1   2
BRANCH   1   4
ATOM      4  C   LEU A   1      18.801  -5.386  15.199  0.00  0.00    +0.224 C 
ATOM      5  O   LEU A   1      18.316  -4.265  15.196  0.00  0.00    -0.287 OA
ENDBRANCH   1   4
BRANCH   1   6
ATOM      6  CB  LEU A   1      17.108  -6.879  16.283  0.00  0.00    +0.025 C 
BRANCH   6   7
ATOM      7  CG  LEU A   1      16.589  -7.605  17.522  0.00  0.00    +0.002 C 
ATOM      8  CD2 LEU A   1      17.244  -8.946  17.831  0.00  0.00    +0.000 C 
ATOM      9  CD1 LEU A   1      15.100  -7.760  17.373  0.00  0.00    +0.000 C 
ENDBRANCH   6   7
ENDBRANCH   1   6
TORSDOF 4
REMARK  Name = ../refined-set-2016/1hvs/1hvs_pocket.pdb
REMARK  219 active torsions:
REMARK  status: ('A' for Active; 'I' for Inactive)
REMARK    1  A    between atoms: _1  and  _3
REMARK    2  A    between atoms: _3  and  _4
REMARK    3  A    between atoms: _3  and  _6
REMARK    4  A    between atoms: _6  and  _7
REMARK    5  A    between atoms: _7  and  _8
REMARK    6  A    between atoms: _8  and  _9
REMARK    7  A    between atoms: _19  and  _20
REMARK    8  A    between atoms: _25  and  _27
REMARK    9  A    between atoms: _27  and  _28
REMARK   10  A    between atoms: _27  and  _30
REMARK   11  A    between atoms: _30  and  _31
REMARK   12  A    between atoms: _34  and  _36
REMARK   13  A    between atoms: _36  and  _37
REMARK   14  A    between atoms: _36  and  _39
REMARK   15  A    between atoms: _39  and  _40
REMARK   16  A    between atoms: _43  and  _45
REMARK   17  A    between atoms: _45  and  _46
REMARK   18  A    between atoms: _45  and  _48
REMARK   19  A    between atoms: _48  and  _49
REMARK   20  A    between atoms: _52  and  _54
REMARK   21  A    between atoms: _54  and  _55
REMARK   22  A    between atoms: _54  and  _57
REMARK   23  A    between atoms: _57  and  _58
REMARK   24  A    between atoms: _61  and  _63
REMARK   25  A    between atoms: _63  and  _64
REMARK   26  A    between atoms: _63  and  _66
REMARK   27  A    between atoms: _66  and  _67
REMARK   28  A    between atoms: _70  and  _72
REMARK   29  A    between atoms: _72  and  _73
REMARK   30  A    between atoms: _75  and  _77
REMARK   31  A    between atoms: _77  and  _78
REMARK   32  A    between atoms: _81  and  _83
REMARK   33  A    between atoms: _83  and  _84
REMARK   34  A    between atoms: _83  and  _86
REMARK   35  A    between atoms: _86  and  _87
REMARK   36  A    between atoms: _90  and  _92
REMARK   37  A    between atoms: _92  and  _93
REMARK   38  A    between atoms: _92  and  _95
REMARK   39  A    between atoms: _95  and  _96
REMARK   40  A    between atoms: _99  and  _101
REMARK   41  A    between atoms: _101  and  _102
REMARK   42  A    between atoms: _101  and  _104
REMARK   43  A    between atoms: _104  and  _105
REMARK   44  A    between atoms: _108  and  _110
REMARK   45  A    between atoms: _110  and  _111
REMARK   46  A    between atoms: _110  and  _113
REMARK   47  A    between atoms: _116  and  _118
REMARK   48  A    between atoms: _118  and  _119
REMARK   49  A    between atoms: _118  and  _121
REMARK   50  A    between atoms: _121  and  _122
REMARK   51  A    between atoms: _122  and  _123
REMARK   52  A    between atoms: _123  and  _124
REMARK   53  A    between atoms: _124  and  _125
REMARK   54  A    between atoms: _129  and  _131
REMARK   55  A    between atoms: _131  and  _132
REMARK   56  A    between atoms: _131  and  _134
REMARK   57  A    between atoms: _134  and  _135
REMARK   58  A    between atoms: _138  and  _140
REMARK   59  A    between atoms: _140  and  _141
REMARK   60  A    between atoms: _143  and  _145
REMARK   61  A    between atoms: _145  and  _146
REMARK   62  A    between atoms: _148  and  _150
REMARK   63  A    between atoms: _150  and  _151
REMARK   64  A    between atoms: _150  and  _153
REMARK   65  A    between atoms: _153  and  _154
REMARK   66  A    between atoms: _157  and  _159
REMARK   67  A    between atoms: _159  and  _160
REMARK   68  A    between atoms: _162  and  _164
REMARK   69  A    between atoms: _164  and  _165
REMARK   70  A    between atoms: _167  and  _169
REMARK   71  A    between atoms: _169  and  _170
REMARK   72  A    between atoms: _169  and  _172
REMARK   73  A    between atoms: _172  and  _173
REMARK   74  A    between atoms: _179  and  _181
REMARK   75  A    between atoms: _181  and  _182
REMARK   76  A    between atoms: _181  and  _184
REMARK   77  A    between atoms: _184  and  _185
REMARK   78  A    between atoms: _188  and  _190
REMARK   79  A    between atoms: _190  and  _191
REMARK   80  A    between atoms: _190  and  _193
REMARK   81  A    between atoms: _196  and  _198
REMARK   82  A    between atoms: _198  and  _199
REMARK   83  A    between atoms: _198  and  _201
REMARK   84  A    between atoms: _201  and  _202
REMARK   85  A    between atoms: _205  and  _207
REMARK   86  A    between atoms: _207  and  _208
REMARK   87  A    between atoms: _207  and  _210
REMARK   88  A    between atoms: _210  and  _211
REMARK   89  A    between atoms: _215  and  _216
REMARK   90  A    between atoms: _221  and  _223
REMARK   91  A    between atoms: _223  and  _224
REMARK   92  A    between atoms: _227  and  _229
REMARK   93  A    between atoms: _229  and  _230
REMARK   94  A    between atoms: _229  and  _232
REMARK   95  A    between atoms: _232  and  _233
REMARK   96  A    between atoms: _238  and  _240
REMARK   97  A    between atoms: _240  and  _241
REMARK   98  A    between atoms: _240  and  _243
REMARK   99  A    between atoms: _243  and  _244
REMARK  100  A    between atoms: _247  and  _249
REMARK  101  A    between atoms: _249  and  _250
REMARK  102  A    between atoms: _249  and  _252
REMARK  103  A    between atoms: _252  and  _253
REMARK  104  A    between atoms: _256  and  _258
REMARK  105  A    between atoms: _258  and  _259
REMARK  106  A    between atoms: _261  and  _263
REMARK  107  A    between atoms: _263  and  _264
REMARK  108  A    between atoms: _263  and  _266
REMARK  109  A    between atoms: _266  and  _267
REMARK  110  A    between atoms: _267  and  _268
REMARK  111  A    between atoms: _268  and  _269
REMARK  112  A    between atoms: _278  and  _280
REMARK  113  A    between atoms: _280  and  _281
REMARK  114  A    between atoms: _280  and  _283
REMARK  115  A    between atoms: _283  and  _284
REMARK  116  A    between atoms: _284  and  _285
REMARK  117  A    between atoms: _285  and  _286
REMARK  118  A    between atoms: _295  and  _297
REMARK  119  A    between atoms: _297  and  _298
REMARK  120  A    between atoms: _297  and  _300
REMARK  121  A    between atoms: _300  and  _301
REMARK  122  A    between atoms: _304  and  _306
REMARK  123  A    between atoms: _306  and  _307
REMARK  124  A    between atoms: _306  and  _309
REMARK  125  A    between atoms: _309  and  _310
REMARK  126  A    between atoms: _313  and  _315
REMARK  127  A    between atoms: _315  and  _316
REMARK  128  A    between atoms: _315  and  _318
REMARK  129  A    between atoms: _318  and  _319
REMARK  130  A    between atoms: _322  and  _324
REMARK  131  A    between atoms: _324  and  _325
REMARK  132  A    between atoms: _324  and  _327
REMARK  133  A    between atoms: _327  and  _328
REMARK  134  A    between atoms: _331  and  _333
REMARK  135  A    between atoms: _333  and  _334
REMARK  136  A    between atoms: _333  and  _336
REMARK  137  A    between atoms: _336  and  _337
REMARK  138  A    between atoms: _340  and  _342
REMARK  139  A    between atoms: _342  and  _343
REMARK  140  A    between atoms: _345  and  _347
REMARK  141  A    between atoms: _347  and  _348
REMARK  142  A    between atoms: _351  and  _353
REMARK  143  A    between atoms: _353  and  _354
REMARK  144  A    between atoms: _353  and  _356
REMARK  145  A    between atoms: _356  and  _357
REMARK  146  A    between atoms: _360  and  _362
REMARK  147  A    between atoms: _362  and  _363
REMARK  148  A    between atoms: _362  and  _365
REMARK  149  A    between atoms: _365  and  _366
REMARK  150  A    between atoms: _369  and  _371
REMARK  151  A    between atoms: _371  and  _372
REMARK  152  A    between atoms: _371  and  _374
REMARK  153  A    between atoms: _374  and  _375
REMARK  154  A    between atoms: _378  and  _380
REMARK  155  A    between atoms: _380  and  _381
REMARK  156  A    between atoms: _380  and  _383
REMARK  157  A    between atoms: _386  and  _388
REMARK  158  A    between atoms: _388  and  _389
REMARK  159  A    between atoms: _388  and  _391
REMARK  160  A    between atoms: _391  and  _392
REMARK  161  A    between atoms: _392  and  _393
REMARK  162  A    between atoms: _393  and  _394
REMARK  163  A    between atoms: _394  and  _395
REMARK  164  A    between atoms: _399  and  _401
REMARK  165  A    between atoms: _401  and  _402
REMARK  166  A    between atoms: _401  and  _404
REMARK  167  A    between atoms: _404  and  _405
REMARK  168  A    between atoms: _408  and  _410
REMARK  169  A    between atoms: _410  and  _411
REMARK  170  A    between atoms: _413  and  _415
REMARK  171  A    between atoms: _415  and  _416
REMARK  172  A    between atoms: _418  and  _420
REMARK  173  A    between atoms: _420  and  _421
REMARK  174  A    between atoms: _420  and  _423
REMARK  175  A    between atoms: _423  and  _424
REMARK  176  A    between atoms: _427  and  _429
REMARK  177  A    between atoms: _429  and  _430
REMARK  178  A    between atoms: _432  and  _434
REMARK  179  A    between atoms: _434  and  _435
REMARK  180  A    between atoms: _437  and  _439
REMARK  181  A    between atoms: _439  and  _440
REMARK  182  A    between atoms: _439  and  _442
REMARK  183  A    between atoms: _442  and  _443
REMARK  184  A    between atoms: _449  and  _451
REMARK  185  A    between atoms: _451  and  _452
REMARK  186  A    between atoms: _451  and  _454
REMARK  187  A    between atoms: _454  and  _455
REMARK  188  A    between atoms: _458  and  _460
REMARK  189  A    between atoms: _460  and  _461
REMARK  190  A    between atoms: _460  and  _463
REMARK  191  A    between atoms: _463  and  _464
REMARK  192  A    between atoms: _468  and  _469
REMARK  193  A    between atoms: _474  and  _476
REMARK  194  A    between atoms: _476  and  _477
REMARK  195  A    between atoms: _476  and  _479
REMARK  196  A    between atoms: _479  and  _480
REMARK  197  A    between atoms: _484  and  _485
REMARK  198  A    between atoms: _490  and  _492
REMARK  199  A    between atoms: _492  and  _493
REMARK  200  A    between atoms: _496  and  _498
REMARK  201  A    between atoms: _498  and  _499
REMARK  202  A    between atoms: _498  and  _501
REMARK  203  A    between atoms: _501  and  _502
REMARK  204  A    between atoms: _507  and  _509
REMARK  205  A    between atoms: _509  and  _510
REMARK  206  A    between atoms: _509  and  _512
REMARK  207  A    between atoms: _512  and  _513
REMARK  208  A    between atoms: _516  and  _518
REMARK  209  A    between atoms: _518  and  _519
REMARK  210  A    between atoms: _518  and  _521
REMARK  211  A    between atoms: _521  and  _522
REMARK  212  A    between atoms: _525  and  _527
REMARK  213  A    between atoms: _527  and  _528
REMARK  214  A    between atoms: _530  and  _532
REMARK  215  A    between atoms: _532  and  _533
REMARK  216  A    between atoms: _532  and  _535
REMARK  217  A    between atoms: _535  and  _536
REMARK  218  A    between atoms: _536  and  _537
REMARK  219  A    between atoms: _537  and  _538
REMARK                            x       y       z     vdW  Elec       q    Type
REMARK                         _______ _______ _______ _____ _____    ______ ____
ROOT
ATOM      1  C   ASN A   5      14.411   2.941  15.133  0.00  0.00    +0.241 C 
ATOM      2  N   ILE A   6      14.201   1.845  15.820  0.00  0.00    -0.297 N 
ATOM      3  H   ILE A   6      14.857   1.045  15.714  0.00  0.00    +0.150 HD
ATOM      4  O   ASN A   5      13.783   3.961  15.368  0.00  0.00    -0.273 OA
ENDROOT
BRANCH   1   5
ATOM      5  CA  ASN A   5      15.401   2.857  13.982  0.00  0.00    +0.158 C 
BRANCH   5   7
ATOM      6  C   ALA A   4      14.047   2.556  11.991  0.00  0.00    +0.241 C 
ATOM      7  N   ASN A   5      14.745   3.368  12.774  0.00  0.00    -0.297 N 
ATOM      8  H   ASN A   5      14.828   4.375  12.529  0.00  0.00    +0.150 HD
ATOM      9  O   ALA A   4      14.053   1.334  12.080  0.00  0.00    -0.273 OA
BRANCH   6  10
ATOM     10  CA  ALA A   4      13.182   3.204  10.931  0.00  0.00    +0.149 C 
ATOM     11  CB  ALA A   4      11.851   3.637  11.549  0.00  0.00    +0.031 C 
BRANCH  10  13
ATOM     12  C   PRO A   3      13.079   2.565   8.659  0.00  0.00    +0.241 C 
ATOM     13  N   ALA A   4      12.937   2.188   9.913  0.00  0.00    -0.297 N 
ATOM     14  H   ALA A   4      12.664   1.216  10.164  0.00  0.00    +0.150 HD
ATOM     15  O   PRO A   3      13.267   3.731   8.359  0.00  0.00    -0.273 OA
BRANCH  12  22
ATOM     16  C   THR A   2      14.432  -0.334   8.267  0.00  0.00    +0.246 C 
ATOM     17  O   THR A   2      15.465   0.308   8.115  0.00  0.00    -0.273 OA
ATOM     18  N   PRO A   3      13.213   0.120   7.929  0.00  0.00    -0.272 N 
ATOM     19  CD  PRO A   3      11.999  -0.682   7.810  0.00  0.00    +0.094 C 
ATOM     20  CG  PRO A   3      10.919   0.316   7.471  0.00  0.00    +0.024 C 
ATOM     21  CB  PRO A   3      11.652   1.511   6.897  0.00  0.00    +0.031 C 
ATOM     22  CA  PRO A   3      13.006   1.529   7.563  0.00  0.00    +0.152 C 
BRANCH  16  23
ATOM     23  CA  THR A   2      14.471  -1.752   8.852  0.00  0.00    +0.176 C 
BRANCH  23  25
ATOM     24  C   PRO A   1      15.701  -3.057   7.294  0.00  0.00    +0.239 C 
ATOM     25  N   THR A   2      15.688  -2.462   8.442  0.00  0.00    -0.295 N 
ATOM     26  H   THR A   2      16.523  -2.486   9.062  0.00  0.00    +0.150 HD
ATOM     27  O   PRO A   1      14.754  -3.010   6.552  0.00  0.00    -0.274 OA
BRANCH  24  32
ATOM     28  N   PRO A   1      17.334  -4.782   7.876  0.00  0.00    -0.210 NA
ATOM     29  CD  PRO A   1      16.995  -6.167   7.506  0.00  0.00    +0.089 C 
ATOM     30  CG  PRO A   1      16.044  -6.025   6.310  0.00  0.00    +0.021 C 
ATOM     31  CB  PRO A   1      16.611  -4.748   5.715  0.00  0.00    +0.028 C 
ATOM     32  CA  PRO A   1      16.918  -3.807   6.881  0.00  0.00    +0.149 C 
ENDBRANCH  24  32
ENDBRANCH  23  25
BRANCH  23  33
ATOM     33  CB  THR A   2      14.406  -1.765  10.421  0.00  0.00    +0.137 C 
ATOM     34  CG2 THR A   2      15.590  -1.105  11.062  0.00  0.00    +0.034 C 
BRANCH  33  35
ATOM     35  OG1 THR A   2      13.206  -1.149  10.907  0.00  0.00    -0.382 OA
ATOM     36  HG1 THR A   2      13.172  -0.208  10.601  0.00  0.00    +0.210 HD
ENDBRANCH  33  35
ENDBRANCH  23  33
ENDBRANCH  16  23
ENDBRANCH  12  22
ENDBRANCH  10  13
ENDBRANCH   6  10
ENDBRANCH   5   7
BRANCH   5  37
ATOM     37  CB  ASN A   5      16.586   3.718  14.345  0.00  0.00    +0.114 C 
BRANCH  37  38
ATOM     38  CG  ASN A   5      17.726   3.614  13.350  0.00  0.00    +0.222 C 
ATOM     39  ND2 ASN A   5      18.351   4.728  13.048  0.00  0.00    -0.329 N 
ATOM     40 HD21 ASN A   5      18.042   5.628  13.468  0.00  0.00    +0.145 HD
ATOM     41 HD22 ASN A   5      19.156   4.711  12.389  0.00  0.00    +0.145 HD
ATOM     42  OD1 ASN A   5      18.079   2.564  12.867  0.00  0.00    -0.275 OA
ENDBRANCH  37  38
ENDBRANCH   5  37
ENDBRANCH   1   5
BRANCH   2  43
ATOM     43  CA  ILE A   6      13.064   1.722  16.734  0.00  0.00    +0.149 C 
BRANCH  43  44
ATOM     44  C   ILE A   6      13.575   1.394  18.126  0.00  0.00    +0.241 C 
ATOM     45  N   ILE A   7      13.296   2.251  19.109  0.00  0.00    -0.297 N 
ATOM     46  H   ILE A   7      12.822   3.157  18.918  0.00  0.00    +0.150 HD
ATOM     47  O   ILE A   6      14.213   0.371  18.311  0.00  0.00    -0.273 OA
BRANCH  45  48
ATOM     48  CA  ILE A   7      13.684   1.867  20.470  0.00  0.00    +0.149 C 
BRANCH  48  49
ATOM     49  C   ILE A   7      12.503   1.271  21.190  0.00  0.00    +0.241 C 
ATOM     50  N   GLY A   8      12.620   0.018  21.538  0.00  0.00    -0.295 N 
ATOM     51  H   GLY A   8      13.529  -0.477  21.433  0.00  0.00    +0.150 HD
ATOM     52  O   ILE A   7      11.504   1.935  21.365  0.00  0.00    -0.273 OA
BRANCH  50  53
ATOM     53  CA  GLY A   8      11.466  -0.670  22.072  0.00  0.00    +0.176 C 
BRANCH  53  54
ATOM     54  C   GLY A   8      11.547  -0.726  23.552  0.00  0.00    +0.243 C 
ATOM     55  O   GLY A   8      12.424  -0.145  24.197  0.00  0.00    -0.273 OA
ATOM     56  N   ARG A   9      10.622  -1.488  24.115  0.00  0.00    -0.298 N 
ATOM     57  H   ARG A   9      10.003  -2.092  23.538  0.00  0.00    +0.150 HD
BRANCH  56  58
ATOM     58  CA  ARG A   9      10.496  -1.456  25.573  0.00  0.00    +0.137 C 
BRANCH  58  59
ATOM     59  C   ARG A   9      11.652  -2.005  26.399  0.00  0.00    +0.227 C 
ATOM     60  O   ARG A   9      11.846  -1.627  27.537  0.00  0.00    -0.286 OA
ENDBRANCH  58  59
BRANCH  58  61
ATOM     61  CB  ARG A   9       9.224  -2.158  26.034  0.00  0.00    +0.031 C 
BRANCH  61  62
ATOM     62  CG  ARG A   9       7.887  -1.635  25.513  0.00  0.00    +0.045 C 
BRANCH  62  63
ATOM     63  CD  ARG A   9       6.739  -2.329  26.249  0.00  0.00    +0.174 C 
BRANCH  63  64
ATOM     64  NE  ARG A   9       6.585  -3.749  25.886  0.00  0.00    -0.265 N 
ATOM     65  CZ  ARG A   9       7.120  -4.745  26.602  0.00  0.00    +0.342 C 
ATOM     66  NH2 ARG A   9       7.848  -4.490  27.711  0.00  0.00    -0.292 N 
ATOM     67 HH21 ARG A   9       8.257  -5.275  28.256  0.00  0.00    +0.255 HD
ATOM     68 HH22 ARG A   9       7.999  -3.508  28.019  0.00  0.00    +0.255 HD
ATOM     69  NH1 ARG A   9       6.945  -5.983  26.156  0.00  0.00    -0.292 N 
ATOM     70 HH11 ARG A   9       7.344  -6.787  26.682  0.00  0.00    +0.255 HD
ATOM     71 HH12 ARG A   9       6.409  -6.149  25.281  0.00  0.00    +0.255 HD
ATOM     72  HE  ARG A   9       6.036  -3.988  25.036  0.00  0.00    +0.259 HD
ENDBRANCH  63  64
ENDBRANCH  62  63
ENDBRANCH  61  62
ENDBRANCH  58  61
ENDBRANCH  56  58
ENDBRANCH  53  54
ENDBRANCH  50  53
ENDBRANCH  48  49
BRANCH  48  73
ATOM     73  CB  ILE A   7      14.223   3.064  21.295  0.00  0.00    +0.027 C 
ATOM     74  CG2 ILE A   7      14.815   2.555  22.573  0.00  0.00    +0.002 C 
BRANCH  73  75
ATOM     75  CG1 ILE A   7      15.250   3.923  20.587  0.00  0.00    +0.002 C 
ATOM     76  CD1 ILE A   7      16.513   3.179  20.152  0.00  0.00    +0.000 C 
ENDBRANCH  73  75
ENDBRANCH  48  73
ENDBRANCH  45  48
ENDBRANCH  43  44
BRANCH  43  77
ATOM     77  CB  ILE A   6      12.220   0.561  16.166  0.00  0.00    +0.027 C 
ATOM     78  CG2 ILE A   6      11.101   0.116  17.080  0.00  0.00    +0.002 C 
BRANCH  77  79
ATOM     79  CG1 ILE A   6      11.623   0.941  14.834  0.00  0.00    +0.002 C 
ATOM     80  CD1 ILE A   6      10.868  -0.216  14.217  0.00  0.00    +0.000 C 
ENDBRANCH  77  79
ENDBRANCH  43  77
ENDBRANCH   2  43
TORSDOF 28
