REMARK  Name = ../refined-set-2016/3d51/3d51_pocket.pdb
REMARK  141 active torsions:
REMARK  status: ('A' for Active; 'I' for Inactive)
REMARK    1  A    between atoms: _1  and  _3
REMARK    2  A    between atoms: _14  and  _17
REMARK    3  A    between atoms: _17  and  _18
REMARK    4  A    between atoms: _25  and  _26
REMARK    5  A    between atoms: _33  and  _34
REMARK    6  A    between atoms: _39  and  _41
REMARK    7  A    between atoms: _41  and  _42
REMARK    8  A    between atoms: _44  and  _46
REMARK    9  A    between atoms: _46  and  _47
REMARK   10  A    between atoms: _46  and  _49
REMARK   11  A    between atoms: _49  and  _50
REMARK   12  A    between atoms: _60  and  _62
REMARK   13  A    between atoms: _62  and  _63
REMARK   14  A    between atoms: _62  and  _65
REMARK   15  A    between atoms: _65  and  _66
REMARK   16  A    between atoms: _69  and  _71
REMARK   17  A    between atoms: _71  and  _72
REMARK   18  A    between atoms: _71  and  _74
REMARK   19  A    between atoms: _74  and  _75
REMARK   20  A    between atoms: _80  and  _81
REMARK   21  A    between atoms: _83  and  _85
REMARK   22  A    between atoms: _85  and  _86
REMARK   23  A    between atoms: _85  and  _88
REMARK   24  A    between atoms: _88  and  _89
REMARK   25  A    between atoms: _89  and  _90
REMARK   26  A    between atoms: _93  and  _95
REMARK   27  A    between atoms: _95  and  _96
REMARK   28  A    between atoms: _95  and  _98
REMARK   29  A    between atoms: _98  and  _99
REMARK   30  A    between atoms: _99  and  _100
REMARK   31  A    between atoms: _102  and  _104
REMARK   32  A    between atoms: _104  and  _105
REMARK   33  A    between atoms: _104  and  _107
REMARK   34  A    between atoms: _107  and  _108
REMARK   35  A    between atoms: _111  and  _113
REMARK   36  A    between atoms: _113  and  _114
REMARK   37  A    between atoms: _113  and  _116
REMARK   38  A    between atoms: _116  and  _117
REMARK   39  A    between atoms: _117  and  _119
REMARK   40  A    between atoms: _119  and  ZN_385
REMARK   41  A    between atoms: _121  and  _122
REMARK   42  A    between atoms: _127  and  _129
REMARK   43  A    between atoms: _129  and  _130
REMARK   44  A    between atoms: _129  and  _132
REMARK   45  A    between atoms: _132  and  _133
REMARK   46  A    between atoms: _139  and  _141
REMARK   47  A    between atoms: _141  and  _142
REMARK   48  A    between atoms: _141  and  _144
REMARK   49  A    between atoms: _144  and  _145
REMARK   50  A    between atoms: _145  and  _146
REMARK   51  A    between atoms: _146  and  _147
REMARK   52  A    between atoms: _156  and  _158
REMARK   53  A    between atoms: _158  and  _159
REMARK   54  A    between atoms: _158  and  _161
REMARK   55  A    between atoms: _161  and  _162
REMARK   56  A    between atoms: _167  and  _168
REMARK   57  A    between atoms: _170  and  _172
REMARK   58  A    between atoms: _172  and  _173
REMARK   59  A    between atoms: _172  and  _175
REMARK   60  A    between atoms: _175  and  _176
REMARK   61  A    between atoms: _178  and  _180
REMARK   62  A    between atoms: _180  and  _181
REMARK   63  A    between atoms: _180  and  _183
REMARK   64  A    between atoms: _183  and  _184
REMARK   65  A    between atoms: _189  and  _190
REMARK   66  A    between atoms: _192  and  _194
REMARK   67  A    between atoms: _194  and  _195
REMARK   68  A    between atoms: _194  and  _197
REMARK   69  A    between atoms: _197  and  _198
REMARK   70  A    between atoms: _201  and  _203
REMARK   71  A    between atoms: _203  and  _204
REMARK   72  A    between atoms: _203  and  _206
REMARK   73  A    between atoms: _206  and  _207
REMARK   74  A    between atoms: _210  and  _212
REMARK   75  A    between atoms: _212  and  _213
REMARK   76  A    between atoms: _212  and  _215
REMARK   77  A    between atoms: _215  and  _216
REMARK   78  A    between atoms: _222  and  _224
REMARK   79  A    between atoms: _224  and  _225
REMARK   80  A    between atoms: _224  and  _227
REMARK   81  A    between atoms: _227  and  _228
REMARK   82  A    between atoms: _233  and  _234
REMARK   83  A    between atoms: _236  and  _238
REMARK   84  A    between atoms: _238  and  _239
REMARK   85  A    between atoms: _238  and  _241
REMARK   86  A    between atoms: _241  and  _242
REMARK   87  A    between atoms: _245  and  _247
REMARK   88  A    between atoms: _247  and  _248
REMARK   89  A    between atoms: _247  and  _250
REMARK   90  A    between atoms: _250  and  _251
REMARK   91  A    between atoms: _261  and  _263
REMARK   92  A    between atoms: _263  and  _264
REMARK   93  A    between atoms: _263  and  _266
REMARK   94  A    between atoms: _266  and  _267
REMARK   95  A    between atoms: _272  and  _274
REMARK   96  A    between atoms: _274  and  _275
REMARK   97  A    between atoms: _274  and  _277
REMARK   98  A    between atoms: _277  and  _278
REMARK   99  A    between atoms: _282  and  ZN_385
REMARK  100  A    between atoms: _283  and  _285
REMARK  101  A    between atoms: _285  and  _286
REMARK  102  A    between atoms: _285  and  _288
REMARK  103  A    between atoms: _288  and  _289
REMARK  104  A    between atoms: _292  and  _294
REMARK  105  A    between atoms: _294  and  _295
REMARK  106  A    between atoms: _297  and  _299
REMARK  107  A    between atoms: _299  and  _300
REMARK  108  A    between atoms: _299  and  _302
REMARK  109  A    between atoms: _302  and  _303
REMARK  110  A    between atoms: _306  and  _308
REMARK  111  A    between atoms: _308  and  _309
REMARK  112  A    between atoms: _308  and  _311
REMARK  113  A    between atoms: _311  and  _312
REMARK  114  A    between atoms: _315  and  _317
REMARK  115  A    between atoms: _317  and  _318
REMARK  116  A    between atoms: _321  and  _323
REMARK  117  A    between atoms: _323  and  _324
REMARK  118  A    between atoms: _323  and  _326
REMARK  119  A    between atoms: _326  and  _327
REMARK  120  A    between atoms: _332  and  _333
REMARK  121  A    between atoms: _335  and  _337
REMARK  122  A    between atoms: _337  and  _338
REMARK  123  A    between atoms: _337  and  _340
REMARK  124  A    between atoms: _340  and  _341
REMARK  125  A    between atoms: _344  and  _346
REMARK  126  A    between atoms: _346  and  _347
REMARK  127  A    between atoms: _346  and  _349
REMARK  128  A    between atoms: _349  and  _350
REMARK  129  A    between atoms: _350  and  _351
REMARK  130  A    between atoms: _354  and  _356
REMARK  131  A    between atoms: _356  and  _357
REMARK  132  A    between atoms: _356  and  _359
REMARK  133  A    between atoms: _359  and  _360
REMARK  134  A    between atoms: _360  and  _361
REMARK  135  A    between atoms: _361  and  _362
REMARK  136  A    between atoms: _371  and  _373
REMARK  137  A    between atoms: _373  and  _374
REMARK  138  A    between atoms: _376  and  _378
REMARK  139  A    between atoms: _378  and  _379
REMARK  140  A    between atoms: _378  and  _381
REMARK  141  A    between atoms: _381  and  _382
REMARK                            x       y       z     vdW  Elec       q    Type
REMARK                         _______ _______ _______ _____ _____    ______ ____
ROOT
ATOM      1  C   UNK A   1      36.569  60.951  13.641  0.00  0.00    +0.000 C 
ATOM      2  C   UNK A   1      37.257  62.337  13.581  0.00  0.00    +0.000 C 
ATOM      3  O   UNK A   1      36.715  63.323  14.106  0.00  0.00    +0.000 OA
ATOM      4  N   UNK A   2      38.430  62.410  12.954  0.00  0.00    +0.000 N 
ATOM      5  C   UNK A   2      39.187  63.670  12.905  0.00  0.00    +0.000 C 
ATOM      6  C   UNK A   2      39.301  64.139  11.459  0.00  0.00    +0.000 C 
ATOM      7  N   UNK A   3      38.551  65.155  11.078  0.00  0.00    +0.000 N 
ATOM      8  H   UNK A   3      37.889  65.579  11.759  0.00  0.00    +0.000 HD
ATOM      9  C   UNK A   3      38.626  65.700   9.724  0.00  0.00    +0.000 C 
ATOM     10  C   UNK A   3      37.453  66.662   9.560  0.00  0.00    +0.000 C 
ATOM     11  C   UNK A   3      36.122  65.959   9.436  0.00  0.00    +0.000 C 
ATOM     12  O   UNK A   3      35.128  66.423  10.078  0.00  0.00    +0.000 OA
ATOM     13  O   UNK A   3      36.084  64.952   8.699  0.00  0.00    +0.000 OA
ATOM     14 ZN   UNK A   1      34.449  63.727   8.139  0.00  0.00    +0.000 Zn
ATOM     15  N   UNK A   1      34.931  62.325   9.598  0.00  0.00    +0.000 N 
ATOM     16  C   UNK A   1      34.617  62.458  10.927  0.00  0.00    +0.000 A 
ATOM     17  C   UNK A   1      35.173  61.404  11.585  0.00  0.00    +0.000 A 
ATOM     18  N   UNK A   1      35.771  60.618  10.617  0.00  0.00    +0.000 NA
ATOM     19  C   UNK A   1      35.601  61.195   9.432  0.00  0.00    +0.000 A 
ATOM     20  O   UNK A   2      40.104  63.602  10.700  0.00  0.00    +0.000 OA
ATOM     21  H   UNK A   2      38.817  61.562  12.492  0.00  0.00    +0.000 HD
ATOM     22  C   UNK A   1      35.174  61.028  13.037  0.00  0.00    +0.000 C 
ENDROOT
BRANCH   9  23
ATOM     23  C   UNK A   3      39.901  66.525   9.592  0.00  0.00    +0.000 C 
ATOM     24  O   UNK A   3      40.106  67.431  10.400  0.00  0.00    +0.000 OA
ATOM     25  N   GLY A   4      40.767  66.189   8.621  0.00  0.00    +0.000 N 
ATOM     26  CA  GLY A   4      41.955  67.010   8.315  0.00  0.00    +0.000 C 
ATOM     27  CB  GLY A   4      42.849  66.063   7.493  0.00  0.00    +0.000 C 
ATOM     28  CG  GLY A   4      42.239  64.646   7.700  0.00  0.00    +0.000 C 
ATOM     29  CD  GLY A   4      40.771  64.919   7.876  0.00  0.00    +0.000 C 
BRANCH  26  30
ATOM     30  C   GLY A   4      41.611  68.306   7.568  0.00  0.00    +0.000 C 
ATOM     31  N   GLY A   5      40.857  69.144   8.262  0.00  0.00    +0.000 N 
ATOM     32  H   GLY A   5      40.675  68.934   9.264  0.00  0.00    +0.000 HD
ATOM     33  O   GLY A   4      41.995  68.506   6.411  0.00  0.00    +0.000 OA
BRANCH  31  34
ATOM     34  CA  GLY A   5      40.275  70.336   7.693  0.00  0.00    +0.000 C 
BRANCH  34  35
ATOM     35  C   GLY A   5      38.798  70.116   7.415  0.00  0.00    +0.000 C 
ATOM     36  N   TRP A   6      38.008  71.082   7.845  0.00  0.00    +0.000 N 
ATOM     37  H   TRP A   6      38.420  71.829   8.439  0.00  0.00    +0.000 HD
ATOM     38  O   GLY A   5      38.388  69.116   6.862  0.00  0.00    +0.000 OA
BRANCH  36  39
ATOM     39  CA  TRP A   6      36.590  71.154   7.530  0.00  0.00    +0.000 C 
BRANCH  39  40
ATOM     40  C   TRP A   6      36.054  72.535   7.952  0.00  0.00    +0.000 C 
ATOM     41  N   ILE A   7      35.666  72.676   9.209  0.00  0.00    +0.000 N 
ATOM     42  H   ILE A   7      35.650  71.853   9.844  0.00  0.00    +0.000 HD
ATOM     43  O   TRP A   6      36.013  73.438   7.172  0.00  0.00    +0.000 OA
BRANCH  41  44
ATOM     44  CA  ILE A   7      35.262  73.984   9.702  0.00  0.00    +0.000 C 
BRANCH  44  45
ATOM     45  C   ILE A   7      36.431  74.701  10.397  0.00  0.00    +0.000 C 
ATOM     46  O   ILE A   7      36.345  75.887  10.655  0.00  0.00    +0.000 OA
ENDBRANCH  44  45
BRANCH  44  47
ATOM     47  CB  ILE A   7      33.927  73.964  10.523  0.00  0.00    +0.000 C 
ATOM     48  CG2 ILE A   7      32.752  73.416   9.674  0.00  0.00    +0.000 C 
BRANCH  47  49
ATOM     49  CG1 ILE A   7      34.066  73.226  11.839  0.00  0.00    +0.000 C 
ATOM     50  CD1 ILE A   7      32.873  73.478  12.768  0.00  0.00    +0.000 C 
ENDBRANCH  47  49
ENDBRANCH  44  47
ENDBRANCH  41  44
ENDBRANCH  39  40
BRANCH  39  51
ATOM     51  CB  TRP A   6      35.797  70.014   8.193  0.00  0.00    +0.000 C 
BRANCH  51  52
ATOM     52  CG  TRP A   6      34.330  70.110   7.889  0.00  0.00    +0.000 A 
ATOM     53  CD2 TRP A   6      33.244  69.842   8.782  0.00  0.00    +0.000 A 
ATOM     54  CE3 TRP A   6      33.161  69.400  10.095  0.00  0.00    +0.000 A 
ATOM     55  CZ3 TRP A   6      31.913  69.216  10.649  0.00  0.00    +0.000 A 
ATOM     56  CH2 TRP A   6      30.760  69.487   9.928  0.00  0.00    +0.000 A 
ATOM     57  CZ2 TRP A   6      30.807  69.915   8.644  0.00  0.00    +0.000 A 
ATOM     58  CE2 TRP A   6      32.055  70.083   8.076  0.00  0.00    +0.000 A 
ATOM     59  NE1 TRP A   6      32.397  70.504   6.824  0.00  0.00    +0.000 N 
ATOM     60  HE1 TRP A   6      31.731  70.772   6.072  0.00  0.00    +0.000 HD
ATOM     61  CD1 TRP A   6      33.768  70.515   6.722  0.00  0.00    +0.000 A 
ENDBRANCH  51  52
ENDBRANCH  39  51
ENDBRANCH  36  39
ENDBRANCH  34  35
ENDBRANCH  31  34
ENDBRANCH  26  30
ENDBRANCH   9  23
BRANCH  14  62
ATOM     62  N   UNK A   1      35.390  63.095   6.382  0.00  0.00    +0.000 N 
ATOM     63  C   UNK A   1      36.389  62.265   6.141  0.00  0.00    +0.000 A 
ATOM     64  N   UNK A   1      36.520  62.137   4.829  0.00  0.00    +0.000 NA
ATOM     65  C   UNK A   1      35.561  62.909   4.202  0.00  0.00    +0.000 A 
ATOM     66  C   UNK A   1      34.841  63.496   5.197  0.00  0.00    +0.000 A 
BRANCH  65  67
ATOM     67  C   UNK A   1      35.474  63.020   2.706  0.00  0.00    +0.000 C 
BRANCH  67  68
ATOM     68  C   UNK A   1      36.333  64.170   2.128  0.00  0.00    +0.000 C 
BRANCH  68  69
ATOM     69  N   UNK A   1      37.723  64.009   2.478  0.00  0.00    +0.000 N 
ATOM     70  H   UNK A   1      37.972  63.382   3.270  0.00  0.00    +0.000 HD
ATOM     71  C   UNK A   1      38.696  64.634   1.824  0.00  0.00    +0.000 C 
ATOM     72  O   UNK A   1      38.481  65.414   0.871  0.00  0.00    +0.000 OA
BRANCH  71  73
ATOM     73  C   UNK A   1      40.128  64.375   2.324  0.00  0.00    +0.000 C 
BRANCH  73  74
ATOM     74  N   UNK A   1      41.078  64.453   1.231  0.00  0.00    +0.000 NA
ATOM     75  H   UNK A   1      41.934  65.032   1.343  0.00  0.00    +0.000 HD
ENDBRANCH  73  74
BRANCH  73  76
ATOM     76  C   UNK A   1      40.546  65.395   3.373  0.00  0.00    +0.000 C 
BRANCH  76  77
ATOM     77  C   UNK A   1      39.530  65.611   4.443  0.00  0.00    +0.000 A 
ATOM     78  N   UNK A   1      38.888  64.573   5.102  0.00  0.00    +0.000 NA
ATOM     79  C   UNK A   1      38.031  65.096   5.973  0.00  0.00    +0.000 A 
ATOM     80  N   UNK A   1      38.098  66.423   5.901  0.00  0.00    +0.000 NA
ATOM     81  C   UNK A   1      39.050  66.763   4.975  0.00  0.00    +0.000 A 
ENDBRANCH  76  77
ENDBRANCH  73  76
ENDBRANCH  71  73
ENDBRANCH  68  69
BRANCH  68  82
ATOM     82  C   UNK A   1      35.710  65.520   2.461  0.00  0.00    +0.000 C 
ATOM     83  N   UNK A   3      36.499  66.478   2.972  0.00  0.00    +0.000 N 
ATOM     84  H   UNK A   3      37.411  66.209   3.393  0.00  0.00    +0.000 HD
ATOM     85  O   UNK A   1      34.514  65.690   2.216  0.00  0.00    +0.000 OA
BRANCH  83  86
ATOM     86  C   UNK A   3      36.105  67.925   2.954  0.00  0.00    +0.000 C 
BRANCH  86  87
ATOM     87  C   UNK A   3      37.072  68.773   2.155  0.00  0.00    +0.000 C 
ATOM     88  O   UNK A   3      36.968  70.011   2.208  0.00  0.00    +0.000 OA
ATOM     89  N   GLY A   4      37.982  68.136   1.413  0.00  0.00    +0.000 N 
ATOM     90  H   GLY A   4      37.999  67.096   1.413  0.00  0.00    +0.000 HD
BRANCH  89  91
ATOM     91  CA  GLY A   4      38.946  68.859   0.609  0.00  0.00    +0.000 C 
BRANCH  91  92
ATOM     92  C   GLY A   4      38.429  68.997  -0.792  0.00  0.00    +0.000 C 
ATOM     93  O   GLY A   4      37.704  69.931  -1.134  0.00  0.00    +0.000 OA
ENDBRANCH  91  92
ENDBRANCH  89  91
ENDBRANCH  86  87
BRANCH  86  94
ATOM     94  C   UNK A   3      35.961  68.495   4.377  0.00  0.00    +0.000 C 
BRANCH  94  95
ATOM     95  C   UNK A   3      34.913  67.736   5.189  0.00  0.00    +0.000 C 
ATOM     96  O   UNK A   3      35.231  67.203   6.273  0.00  0.00    +0.000 OA
ATOM     97  O   UNK A   3      33.754  67.708   4.700  0.00  0.00    +0.000 OA
ENDBRANCH  94  95
ENDBRANCH  86  94
ENDBRANCH  83  86
ENDBRANCH  68  82
ENDBRANCH  67  68
ENDBRANCH  65  67
ENDBRANCH  14  62
BRANCH   1  98
ATOM     98  N   UNK A   1      36.501  60.505  15.029  0.00  0.00    +0.000 NA
ATOM     99  H   UNK A   1      35.623  60.618  15.574  0.00  0.00    +0.000 HD
ENDBRANCH   1  98
BRANCH   5 100
ATOM    100  C   UNK A   2      40.584  63.475  13.455  0.00  0.00    +0.000 C 
BRANCH 100 101
ATOM    101  C   UNK A   2      40.601  63.376  14.972  0.00  0.00    +0.000 C 
ATOM    102  O   UNK A   2      41.217  64.182  15.675  0.00  0.00    +0.000 OA
ATOM    103  N   UNK A   2      39.937  62.360  15.489  0.00  0.00    +0.000 N 
ATOM    104  H   UNK A   2      39.922  62.219  16.519  0.00  0.00    +0.000 HD
ATOM    105  H   UNK A   2      39.429  61.700  14.866  0.00  0.00    +0.000 HD
ENDBRANCH 100 101
ENDBRANCH   5 100
BRANCH  14 106
ATOM    106  O   UNK A   1      32.634  62.941   7.556  0.00  0.00    +0.000 OA
BRANCH 106 107
ATOM    107  C   UNK A   1      32.079  61.809   7.450  0.00  0.00    +0.000 C 
ATOM    108  O   UNK A   1      30.817  61.643   7.564  0.00  0.00    +0.000 OA
BRANCH 107 109
ATOM    109  C   UNK A   1      32.992  60.576   7.242  0.00  0.00    +0.000 C 
BRANCH 109 110
ATOM    110  C   UNK A   1      32.324  59.471   6.429  0.00  0.00    +0.000 C 
BRANCH 110 111
ATOM    111  C   UNK A   1      32.284  59.895   4.947  0.00  0.00    +0.000 C 
ATOM    112  O   UNK A   1      31.530  60.825   4.647  0.00  0.00    +0.000 OA
ATOM    113  N   UNK A   3      33.021  59.247   4.010  0.00  0.00    +0.000 N 
ATOM    114  C   UNK A   3      34.016  58.166   4.084  0.00  0.00    +0.000 C 
ATOM    115  C   UNK A   3      34.764  58.310   2.741  0.00  0.00    +0.000 C 
ATOM    116  C   UNK A   3      33.702  58.824   1.761  0.00  0.00    +0.000 C 
ATOM    117  C   UNK A   3      32.859  59.757   2.617  0.00  0.00    +0.000 C 
BRANCH 117 118
ATOM    118  C   UNK A   3      31.409  59.692   2.151  0.00  0.00    +0.000 C 
ATOM    119  O   UNK A   3      30.646  58.811   2.575  0.00  0.00    +0.000 OA
ATOM    120  N   GLY A   4      31.007  60.611   1.284  0.00  0.00    +0.000 N 
ATOM    121  H   GLY A   4      31.701  61.190   0.769  0.00  0.00    +0.000 HD
BRANCH 120 122
ATOM    122  CA  GLY A   4      29.558  60.801   1.059  0.00  0.00    +0.000 C 
BRANCH 122 123
ATOM    123  C   GLY A   4      29.107  59.932  -0.112  0.00  0.00    +0.000 C 
ATOM    124  O   GLY A   4      28.876  60.379  -1.234  0.00  0.00    +0.000 OA
ENDBRANCH 122 123
BRANCH 122 125
ATOM    125  CB  GLY A   4      29.250  62.287   0.787  0.00  0.00    +0.000 C 
BRANCH 125 126
ATOM    126  CG  GLY A   4      30.056  63.251   1.655  0.00  0.00    +0.000 A 
ATOM    127  CD2 GLY A   4      30.242  63.026   3.004  0.00  0.00    +0.000 A 
ATOM    128  CE2 GLY A   4      30.987  63.890   3.776  0.00  0.00    +0.000 A 
ATOM    129  CZ  GLY A   4      31.569  65.025   3.169  0.00  0.00    +0.000 A 
ATOM    130  CE1 GLY A   4      31.343  65.281   1.829  0.00  0.00    +0.000 A 
ATOM    131  CD1 GLY A   4      30.623  64.381   1.078  0.00  0.00    +0.000 A 
ENDBRANCH 125 126
ENDBRANCH 122 125
ENDBRANCH 120 122
ENDBRANCH 117 118
ENDBRANCH 110 111
BRANCH 110 132
ATOM    132  N   UNK A   1      32.851  58.175   6.789  0.00  0.00    +0.000 N 
ATOM    133  C   UNK A   1      32.085  57.343   7.507  0.00  0.00    +0.000 C 
ATOM    134  O   UNK A   1      30.907  57.556   7.773  0.00  0.00    +0.000 OA
ATOM    135  H   UNK A   1      33.808  57.893   6.496  0.00  0.00    +0.000 HD
BRANCH 133 136
ATOM    136  C   UNK A   1      32.735  56.069   7.993  0.00  0.00    +0.000 C 
BRANCH 136 137
ATOM    137  N   UNK A   1      34.025  55.784   7.371  0.00  0.00    +0.000 NA
ATOM    138  H   UNK A   1      34.895  56.168   7.792  0.00  0.00    +0.000 HD
ENDBRANCH 136 137
BRANCH 136 139
ATOM    139  C   UNK A   1      32.843  56.106   9.510  0.00  0.00    +0.000 C 
ATOM    140  C   UNK A   1      33.093  54.675   9.976  0.00  0.00    +0.000 C 
BRANCH 139 141
ATOM    141  C   UNK A   1      33.929  57.088   9.988  0.00  0.00    +0.000 C 
ATOM    142  C   UNK A   1      33.842  57.369  11.515  0.00  0.00    +0.000 C 
ENDBRANCH 139 141
ENDBRANCH 136 139
ENDBRANCH 133 136
ENDBRANCH 110 132
ENDBRANCH 109 110
ENDBRANCH 107 109
ENDBRANCH 106 107
ENDBRANCH  14 106
TORSDOF 45
REMARK  Name = ../refined-set-2016/3d51/3d51_pocket.pdb
REMARK  141 active torsions:
REMARK  status: ('A' for Active; 'I' for Inactive)
REMARK    1  A    between atoms: _1  and  _3
REMARK    2  A    between atoms: _14  and  _17
REMARK    3  A    between atoms: _17  and  _18
REMARK    4  A    between atoms: _25  and  _26
REMARK    5  A    between atoms: _33  and  _34
REMARK    6  A    between atoms: _39  and  _41
REMARK    7  A    between atoms: _41  and  _42
REMARK    8  A    between atoms: _44  and  _46
REMARK    9  A    between atoms: _46  and  _47
REMARK   10  A    between atoms: _46  and  _49
REMARK   11  A    between atoms: _49  and  _50
REMARK   12  A    between atoms: _60  and  _62
REMARK   13  A    between atoms: _62  and  _63
REMARK   14  A    between atoms: _62  and  _65
REMARK   15  A    between atoms: _65  and  _66
REMARK   16  A    between atoms: _69  and  _71
REMARK   17  A    between atoms: _71  and  _72
REMARK   18  A    between atoms: _71  and  _74
REMARK   19  A    between atoms: _74  and  _75
REMARK   20  A    between atoms: _80  and  _81
REMARK   21  A    between atoms: _83  and  _85
REMARK   22  A    between atoms: _85  and  _86
REMARK   23  A    between atoms: _85  and  _88
REMARK   24  A    between atoms: _88  and  _89
REMARK   25  A    between atoms: _89  and  _90
REMARK   26  A    between atoms: _93  and  _95
REMARK   27  A    between atoms: _95  and  _96
REMARK   28  A    between atoms: _95  and  _98
REMARK   29  A    between atoms: _98  and  _99
REMARK   30  A    between atoms: _99  and  _100
REMARK   31  A    between atoms: _102  and  _104
REMARK   32  A    between atoms: _104  and  _105
REMARK   33  A    between atoms: _104  and  _107
REMARK   34  A    between atoms: _107  and  _108
REMARK   35  A    between atoms: _111  and  _113
REMARK   36  A    between atoms: _113  and  _114
REMARK   37  A    between atoms: _113  and  _116
REMARK   38  A    between atoms: _116  and  _117
REMARK   39  A    between atoms: _117  and  _119
REMARK   40  A    between atoms: _119  and  ZN_385
REMARK   41  A    between atoms: _121  and  _122
REMARK   42  A    between atoms: _127  and  _129
REMARK   43  A    between atoms: _129  and  _130
REMARK   44  A    between atoms: _129  and  _132
REMARK   45  A    between atoms: _132  and  _133
REMARK   46  A    between atoms: _139  and  _141
REMARK   47  A    between atoms: _141  and  _142
REMARK   48  A    between atoms: _141  and  _144
REMARK   49  A    between atoms: _144  and  _145
REMARK   50  A    between atoms: _145  and  _146
REMARK   51  A    between atoms: _146  and  _147
REMARK   52  A    between atoms: _156  and  _158
REMARK   53  A    between atoms: _158  and  _159
REMARK   54  A    between atoms: _158  and  _161
REMARK   55  A    between atoms: _161  and  _162
REMARK   56  A    between atoms: _167  and  _168
REMARK   57  A    between atoms: _170  and  _172
REMARK   58  A    between atoms: _172  and  _173
REMARK   59  A    between atoms: _172  and  _175
REMARK   60  A    between atoms: _175  and  _176
REMARK   61  A    between atoms: _178  and  _180
REMARK   62  A    between atoms: _180  and  _181
REMARK   63  A    between atoms: _180  and  _183
REMARK   64  A    between atoms: _183  and  _184
REMARK   65  A    between atoms: _189  and  _190
REMARK   66  A    between atoms: _192  and  _194
REMARK   67  A    between atoms: _194  and  _195
REMARK   68  A    between atoms: _194  and  _197
REMARK   69  A    between atoms: _197  and  _198
REMARK   70  A    between atoms: _201  and  _203
REMARK   71  A    between atoms: _203  and  _204
REMARK   72  A    between atoms: _203  and  _206
REMARK   73  A    between atoms: _206  and  _207
REMARK   74  A    between atoms: _210  and  _212
REMARK   75  A    between atoms: _212  and  _213
REMARK   76  A    between atoms: _212  and  _215
REMARK   77  A    between atoms: _215  and  _216
REMARK   78  A    between atoms: _222  and  _224
REMARK   79  A    between atoms: _224  and  _225
REMARK   80  A    between atoms: _224  and  _227
REMARK   81  A    between atoms: _227  and  _228
REMARK   82  A    between atoms: _233  and  _234
REMARK   83  A    between atoms: _236  and  _238
REMARK   84  A    between atoms: _238  and  _239
REMARK   85  A    between atoms: _238  and  _241
REMARK   86  A    between atoms: _241  and  _242
REMARK   87  A    between atoms: _245  and  _247
REMARK   88  A    between atoms: _247  and  _248
REMARK   89  A    between atoms: _247  and  _250
REMARK   90  A    between atoms: _250  and  _251
REMARK   91  A    between atoms: _261  and  _263
REMARK   92  A    between atoms: _263  and  _264
REMARK   93  A    between atoms: _263  and  _266
REMARK   94  A    between atoms: _266  and  _267
REMARK   95  A    between atoms: _272  and  _274
REMARK   96  A    between atoms: _274  and  _275
REMARK   97  A    between atoms: _274  and  _277
REMARK   98  A    between atoms: _277  and  _278
REMARK   99  A    between atoms: _282  and  ZN_385
REMARK  100  A    between atoms: _283  and  _285
REMARK  101  A    between atoms: _285  and  _286
REMARK  102  A    between atoms: _285  and  _288
REMARK  103  A    between atoms: _288  and  _289
REMARK  104  A    between atoms: _292  and  _294
REMARK  105  A    between atoms: _294  and  _295
REMARK  106  A    between atoms: _297  and  _299
REMARK  107  A    between atoms: _299  and  _300
REMARK  108  A    between atoms: _299  and  _302
REMARK  109  A    between atoms: _302  and  _303
REMARK  110  A    between atoms: _306  and  _308
REMARK  111  A    between atoms: _308  and  _309
REMARK  112  A    between atoms: _308  and  _311
REMARK  113  A    between atoms: _311  and  _312
REMARK  114  A    between atoms: _315  and  _317
REMARK  115  A    between atoms: _317  and  _318
REMARK  116  A    between atoms: _321  and  _323
REMARK  117  A    between atoms: _323  and  _324
REMARK  118  A    between atoms: _323  and  _326
REMARK  119  A    between atoms: _326  and  _327
REMARK  120  A    between atoms: _332  and  _333
REMARK  121  A    between atoms: _335  and  _337
REMARK  122  A    between atoms: _337  and  _338
REMARK  123  A    between atoms: _337  and  _340
REMARK  124  A    between atoms: _340  and  _341
REMARK  125  A    between atoms: _344  and  _346
REMARK  126  A    between atoms: _346  and  _347
REMARK  127  A    between atoms: _346  and  _349
REMARK  128  A    between atoms: _349  and  _350
REMARK  129  A    between atoms: _350  and  _351
REMARK  130  A    between atoms: _354  and  _356
REMARK  131  A    between atoms: _356  and  _357
REMARK  132  A    between atoms: _356  and  _359
REMARK  133  A    between atoms: _359  and  _360
REMARK  134  A    between atoms: _360  and  _361
REMARK  135  A    between atoms: _361  and  _362
REMARK  136  A    between atoms: _371  and  _373
REMARK  137  A    between atoms: _373  and  _374
REMARK  138  A    between atoms: _376  and  _378
REMARK  139  A    between atoms: _378  and  _379
REMARK  140  A    between atoms: _378  and  _381
REMARK  141  A    between atoms: _381  and  _382
REMARK                            x       y       z     vdW  Elec       q    Type
REMARK                         _______ _______ _______ _____ _____    ______ ____
ROOT
ATOM      1  CG  TYR A   1      40.119  70.520  13.094  0.00  0.00    -0.020 A 
ATOM      2  CD2 TYR A   1      39.096  70.777  13.985  0.00  0.00    -0.001 A 
ATOM      3  CE2 TYR A   1      37.797  70.900  13.554  0.00  0.00    +0.036 A 
ATOM      4  CZ  TYR A   1      37.508  70.758  12.210  0.00  0.00    +0.134 A 
ATOM      5  CE1 TYR A   1      38.509  70.498  11.329  0.00  0.00    +0.036 A 
ATOM      6  CD1 TYR A   1      39.796  70.402  11.766  0.00  0.00    -0.001 A 
ENDROOT
BRANCH   4   7
ATOM      7  OH  TYR A   1      36.236  70.873  11.721  0.00  0.00    -0.506 OA
ATOM      8  HH  TYR A   1      35.613  71.061  12.467  0.00  0.00    +0.292 HD
ENDBRANCH   4   7
BRANCH   1   9
ATOM      9  CB  TYR A   1      41.554  70.323  13.529  0.00  0.00    +0.051 C 
BRANCH   9  10
ATOM     10  CA  TYR A   1      42.146  71.298  14.531  0.00  0.00    +0.137 C 
BRANCH  10  11
ATOM     11  N   TYR A   1      42.688  72.472  13.847  0.00  0.00    -0.239 NA
ATOM     12  H   TYR A   1      42.672  72.529  12.809  0.00  0.00    +0.142 HD
ENDBRANCH  10  11
BRANCH  10  13
ATOM     13  C   TYR A   1      43.237  70.553  15.299  0.00  0.00    +0.224 C 
ATOM     14  O   TYR A   1      42.984  70.028  16.360  0.00  0.00    -0.287 OA
ENDBRANCH  10  13
ENDBRANCH   9  10
ENDBRANCH   1   9
TORSDOF 5
REMARK  Name = ../refined-set-2016/3d51/3d51_pocket.pdb
REMARK  141 active torsions:
REMARK  status: ('A' for Active; 'I' for Inactive)
REMARK    1  A    between atoms: _1  and  _3
REMARK    2  A    between atoms: _14  and  _17
REMARK    3  A    between atoms: _17  and  _18
REMARK    4  A    between atoms: _25  and  _26
REMARK    5  A    between atoms: _33  and  _34
REMARK    6  A    between atoms: _39  and  _41
REMARK    7  A    between atoms: _41  and  _42
REMARK    8  A    between atoms: _44  and  _46
REMARK    9  A    between atoms: _46  and  _47
REMARK   10  A    between atoms: _46  and  _49
REMARK   11  A    between atoms: _49  and  _50
REMARK   12  A    between atoms: _60  and  _62
REMARK   13  A    between atoms: _62  and  _63
REMARK   14  A    between atoms: _62  and  _65
REMARK   15  A    between atoms: _65  and  _66
REMARK   16  A    between atoms: _69  and  _71
REMARK   17  A    between atoms: _71  and  _72
REMARK   18  A    between atoms: _71  and  _74
REMARK   19  A    between atoms: _74  and  _75
REMARK   20  A    between atoms: _80  and  _81
REMARK   21  A    between atoms: _83  and  _85
REMARK   22  A    between atoms: _85  and  _86
REMARK   23  A    between atoms: _85  and  _88
REMARK   24  A    between atoms: _88  and  _89
REMARK   25  A    between atoms: _89  and  _90
REMARK   26  A    between atoms: _93  and  _95
REMARK   27  A    between atoms: _95  and  _96
REMARK   28  A    between atoms: _95  and  _98
REMARK   29  A    between atoms: _98  and  _99
REMARK   30  A    between atoms: _99  and  _100
REMARK   31  A    between atoms: _102  and  _104
REMARK   32  A    between atoms: _104  and  _105
REMARK   33  A    between atoms: _104  and  _107
REMARK   34  A    between atoms: _107  and  _108
REMARK   35  A    between atoms: _111  and  _113
REMARK   36  A    between atoms: _113  and  _114
REMARK   37  A    between atoms: _113  and  _116
REMARK   38  A    between atoms: _116  and  _117
REMARK   39  A    between atoms: _117  and  _119
REMARK   40  A    between atoms: _119  and  ZN_385
REMARK   41  A    between atoms: _121  and  _122
REMARK   42  A    between atoms: _127  and  _129
REMARK   43  A    between atoms: _129  and  _130
REMARK   44  A    between atoms: _129  and  _132
REMARK   45  A    between atoms: _132  and  _133
REMARK   46  A    between atoms: _139  and  _141
REMARK   47  A    between atoms: _141  and  _142
REMARK   48  A    between atoms: _141  and  _144
REMARK   49  A    between atoms: _144  and  _145
REMARK   50  A    between atoms: _145  and  _146
REMARK   51  A    between atoms: _146  and  _147
REMARK   52  A    between atoms: _156  and  _158
REMARK   53  A    between atoms: _158  and  _159
REMARK   54  A    between atoms: _158  and  _161
REMARK   55  A    between atoms: _161  and  _162
REMARK   56  A    between atoms: _167  and  _168
REMARK   57  A    between atoms: _170  and  _172
REMARK   58  A    between atoms: _172  and  _173
REMARK   59  A    between atoms: _172  and  _175
REMARK   60  A    between atoms: _175  and  _176
REMARK   61  A    between atoms: _178  and  _180
REMARK   62  A    between atoms: _180  and  _181
REMARK   63  A    between atoms: _180  and  _183
REMARK   64  A    between atoms: _183  and  _184
REMARK   65  A    between atoms: _189  and  _190
REMARK   66  A    between atoms: _192  and  _194
REMARK   67  A    between atoms: _194  and  _195
REMARK   68  A    between atoms: _194  and  _197
REMARK   69  A    between atoms: _197  and  _198
REMARK   70  A    between atoms: _201  and  _203
REMARK   71  A    between atoms: _203  and  _204
REMARK   72  A    between atoms: _203  and  _206
REMARK   73  A    between atoms: _206  and  _207
REMARK   74  A    between atoms: _210  and  _212
REMARK   75  A    between atoms: _212  and  _213
REMARK   76  A    between atoms: _212  and  _215
REMARK   77  A    between atoms: _215  and  _216
REMARK   78  A    between atoms: _222  and  _224
REMARK   79  A    between atoms: _224  and  _225
REMARK   80  A    between atoms: _224  and  _227
REMARK   81  A    between atoms: _227  and  _228
REMARK   82  A    between atoms: _233  and  _234
REMARK   83  A    between atoms: _236  and  _238
REMARK   84  A    between atoms: _238  and  _239
REMARK   85  A    between atoms: _238  and  _241
REMARK   86  A    between atoms: _241  and  _242
REMARK   87  A    between atoms: _245  and  _247
REMARK   88  A    between atoms: _247  and  _248
REMARK   89  A    between atoms: _247  and  _250
REMARK   90  A    between atoms: _250  and  _251
REMARK   91  A    between atoms: _261  and  _263
REMARK   92  A    between atoms: _263  and  _264
REMARK   93  A    between atoms: _263  and  _266
REMARK   94  A    between atoms: _266  and  _267
REMARK   95  A    between atoms: _272  and  _274
REMARK   96  A    between atoms: _274  and  _275
REMARK   97  A    between atoms: _274  and  _277
REMARK   98  A    between atoms: _277  and  _278
REMARK   99  A    between atoms: _282  and  ZN_385
REMARK  100  A    between atoms: _283  and  _285
REMARK  101  A    between atoms: _285  and  _286
REMARK  102  A    between atoms: _285  and  _288
REMARK  103  A    between atoms: _288  and  _289
REMARK  104  A    between atoms: _292  and  _294
REMARK  105  A    between atoms: _294  and  _295
REMARK  106  A    between atoms: _297  and  _299
REMARK  107  A    between atoms: _299  and  _300
REMARK  108  A    between atoms: _299  and  _302
REMARK  109  A    between atoms: _302  and  _303
REMARK  110  A    between atoms: _306  and  _308
REMARK  111  A    between atoms: _308  and  _309
REMARK  112  A    between atoms: _308  and  _311
REMARK  113  A    between atoms: _311  and  _312
REMARK  114  A    between atoms: _315  and  _317
REMARK  115  A    between atoms: _317  and  _318
REMARK  116  A    between atoms: _321  and  _323
REMARK  117  A    between atoms: _323  and  _324
REMARK  118  A    between atoms: _323  and  _326
REMARK  119  A    between atoms: _326  and  _327
REMARK  120  A    between atoms: _332  and  _333
REMARK  121  A    between atoms: _335  and  _337
REMARK  122  A    between atoms: _337  and  _338
REMARK  123  A    between atoms: _337  and  _340
REMARK  124  A    between atoms: _340  and  _341
REMARK  125  A    between atoms: _344  and  _346
REMARK  126  A    between atoms: _346  and  _347
REMARK  127  A    between atoms: _346  and  _349
REMARK  128  A    between atoms: _349  and  _350
REMARK  129  A    between atoms: _350  and  _351
REMARK  130  A    between atoms: _354  and  _356
REMARK  131  A    between atoms: _356  and  _357
REMARK  132  A    between atoms: _356  and  _359
REMARK  133  A    between atoms: _359  and  _360
REMARK  134  A    between atoms: _360  and  _361
REMARK  135  A    between atoms: _361  and  _362
REMARK  136  A    between atoms: _371  and  _373
REMARK  137  A    between atoms: _373  and  _374
REMARK  138  A    between atoms: _376  and  _378
REMARK  139  A    between atoms: _378  and  _379
REMARK  140  A    between atoms: _378  and  _381
REMARK  141  A    between atoms: _381  and  _382
REMARK                            x       y       z     vdW  Elec       q    Type
REMARK                         _______ _______ _______ _____ _____    ______ ____
ROOT
ATOM      1  CA  GLU A   1      44.070  59.747   9.603  0.00  0.00    +0.134 C 
ENDROOT
BRANCH   1   2
ATOM      2  N   GLU A   1      43.447  58.636  10.406  0.00  0.00    -0.239 NA
ATOM      3  H   GLU A   1      43.069  58.853  11.350  0.00  0.00    +0.142 HD
ENDBRANCH   1   2
BRANCH   1   4
ATOM      4  C   GLU A   1      45.555  59.894   9.929  0.00  0.00    +0.224 C 
ATOM      5  O   GLU A   1      45.928  60.459  10.966  0.00  0.00    -0.287 OA
ENDBRANCH   1   4
BRANCH   1   6
ATOM      6  CB  GLU A   1      43.323  61.074   9.873  0.00  0.00    +0.037 C 
BRANCH   6   7
ATOM      7  CG  GLU A   1      41.816  60.962   9.578  0.00  0.00    +0.116 C 
BRANCH   7   8
ATOM      8  CD  GLU A   1      40.938  60.498  10.754  0.00  0.00    +0.365 C 
ATOM      9  OE2 GLU A   1      41.501  60.203  11.820  0.00  0.00    -0.246 OA
ATOM     10  OE1 GLU A   1      39.672  60.461  10.626  0.00  0.00    -0.246 OA
ENDBRANCH   7   8
ENDBRANCH   6   7
ENDBRANCH   1   6
TORSDOF 5
REMARK  Name = ../refined-set-2016/3d51/3d51_pocket.pdb
REMARK  141 active torsions:
REMARK  status: ('A' for Active; 'I' for Inactive)
REMARK    1  A    between atoms: _1  and  _3
REMARK    2  A    between atoms: _14  and  _17
REMARK    3  A    between atoms: _17  and  _18
REMARK    4  A    between atoms: _25  and  _26
REMARK    5  A    between atoms: _33  and  _34
REMARK    6  A    between atoms: _39  and  _41
REMARK    7  A    between atoms: _41  and  _42
REMARK    8  A    between atoms: _44  and  _46
REMARK    9  A    between atoms: _46  and  _47
REMARK   10  A    between atoms: _46  and  _49
REMARK   11  A    between atoms: _49  and  _50
REMARK   12  A    between atoms: _60  and  _62
REMARK   13  A    between atoms: _62  and  _63
REMARK   14  A    between atoms: _62  and  _65
REMARK   15  A    between atoms: _65  and  _66
REMARK   16  A    between atoms: _69  and  _71
REMARK   17  A    between atoms: _71  and  _72
REMARK   18  A    between atoms: _71  and  _74
REMARK   19  A    between atoms: _74  and  _75
REMARK   20  A    between atoms: _80  and  _81
REMARK   21  A    between atoms: _83  and  _85
REMARK   22  A    between atoms: _85  and  _86
REMARK   23  A    between atoms: _85  and  _88
REMARK   24  A    between atoms: _88  and  _89
REMARK   25  A    between atoms: _89  and  _90
REMARK   26  A    between atoms: _93  and  _95
REMARK   27  A    between atoms: _95  and  _96
REMARK   28  A    between atoms: _95  and  _98
REMARK   29  A    between atoms: _98  and  _99
REMARK   30  A    between atoms: _99  and  _100
REMARK   31  A    between atoms: _102  and  _104
REMARK   32  A    between atoms: _104  and  _105
REMARK   33  A    between atoms: _104  and  _107
REMARK   34  A    between atoms: _107  and  _108
REMARK   35  A    between atoms: _111  and  _113
REMARK   36  A    between atoms: _113  and  _114
REMARK   37  A    between atoms: _113  and  _116
REMARK   38  A    between atoms: _116  and  _117
REMARK   39  A    between atoms: _117  and  _119
REMARK   40  A    between atoms: _119  and  ZN_385
REMARK   41  A    between atoms: _121  and  _122
REMARK   42  A    between atoms: _127  and  _129
REMARK   43  A    between atoms: _129  and  _130
REMARK   44  A    between atoms: _129  and  _132
REMARK   45  A    between atoms: _132  and  _133
REMARK   46  A    between atoms: _139  and  _141
REMARK   47  A    between atoms: _141  and  _142
REMARK   48  A    between atoms: _141  and  _144
REMARK   49  A    between atoms: _144  and  _145
REMARK   50  A    between atoms: _145  and  _146
REMARK   51  A    between atoms: _146  and  _147
REMARK   52  A    between atoms: _156  and  _158
REMARK   53  A    between atoms: _158  and  _159
REMARK   54  A    between atoms: _158  and  _161
REMARK   55  A    between atoms: _161  and  _162
REMARK   56  A    between atoms: _167  and  _168
REMARK   57  A    between atoms: _170  and  _172
REMARK   58  A    between atoms: _172  and  _173
REMARK   59  A    between atoms: _172  and  _175
REMARK   60  A    between atoms: _175  and  _176
REMARK   61  A    between atoms: _178  and  _180
REMARK   62  A    between atoms: _180  and  _181
REMARK   63  A    between atoms: _180  and  _183
REMARK   64  A    between atoms: _183  and  _184
REMARK   65  A    between atoms: _189  and  _190
REMARK   66  A    between atoms: _192  and  _194
REMARK   67  A    between atoms: _194  and  _195
REMARK   68  A    between atoms: _194  and  _197
REMARK   69  A    between atoms: _197  and  _198
REMARK   70  A    between atoms: _201  and  _203
REMARK   71  A    between atoms: _203  and  _204
REMARK   72  A    between atoms: _203  and  _206
REMARK   73  A    between atoms: _206  and  _207
REMARK   74  A    between atoms: _210  and  _212
REMARK   75  A    between atoms: _212  and  _213
REMARK   76  A    between atoms: _212  and  _215
REMARK   77  A    between atoms: _215  and  _216
REMARK   78  A    between atoms: _222  and  _224
REMARK   79  A    between atoms: _224  and  _225
REMARK   80  A    between atoms: _224  and  _227
REMARK   81  A    between atoms: _227  and  _228
REMARK   82  A    between atoms: _233  and  _234
REMARK   83  A    between atoms: _236  and  _238
REMARK   84  A    between atoms: _238  and  _239
REMARK   85  A    between atoms: _238  and  _241
REMARK   86  A    between atoms: _241  and  _242
REMARK   87  A    between atoms: _245  and  _247
REMARK   88  A    between atoms: _247  and  _248
REMARK   89  A    between atoms: _247  and  _250
REMARK   90  A    between atoms: _250  and  _251
REMARK   91  A    between atoms: _261  and  _263
REMARK   92  A    between atoms: _263  and  _264
REMARK   93  A    between atoms: _263  and  _266
REMARK   94  A    between atoms: _266  and  _267
REMARK   95  A    between atoms: _272  and  _274
REMARK   96  A    between atoms: _274  and  _275
REMARK   97  A    between atoms: _274  and  _277
REMARK   98  A    between atoms: _277  and  _278
REMARK   99  A    between atoms: _282  and  ZN_385
REMARK  100  A    between atoms: _283  and  _285
REMARK  101  A    between atoms: _285  and  _286
REMARK  102  A    between atoms: _285  and  _288
REMARK  103  A    between atoms: _288  and  _289
REMARK  104  A    between atoms: _292  and  _294
REMARK  105  A    between atoms: _294  and  _295
REMARK  106  A    between atoms: _297  and  _299
REMARK  107  A    between atoms: _299  and  _300
REMARK  108  A    between atoms: _299  and  _302
REMARK  109  A    between atoms: _302  and  _303
REMARK  110  A    between atoms: _306  and  _308
REMARK  111  A    between atoms: _308  and  _309
REMARK  112  A    between atoms: _308  and  _311
REMARK  113  A    between atoms: _311  and  _312
REMARK  114  A    between atoms: _315  and  _317
REMARK  115  A    between atoms: _317  and  _318
REMARK  116  A    between atoms: _321  and  _323
REMARK  117  A    between atoms: _323  and  _324
REMARK  118  A    between atoms: _323  and  _326
REMARK  119  A    between atoms: _326  and  _327
REMARK  120  A    between atoms: _332  and  _333
REMARK  121  A    between atoms: _335  and  _337
REMARK  122  A    between atoms: _337  and  _338
REMARK  123  A    between atoms: _337  and  _340
REMARK  124  A    between atoms: _340  and  _341
REMARK  125  A    between atoms: _344  and  _346
REMARK  126  A    between atoms: _346  and  _347
REMARK  127  A    between atoms: _346  and  _349
REMARK  128  A    between atoms: _349  and  _350
REMARK  129  A    between atoms: _350  and  _351
REMARK  130  A    between atoms: _354  and  _356
REMARK  131  A    between atoms: _356  and  _357
REMARK  132  A    between atoms: _356  and  _359
REMARK  133  A    between atoms: _359  and  _360
REMARK  134  A    between atoms: _360  and  _361
REMARK  135  A    between atoms: _361  and  _362
REMARK  136  A    between atoms: _371  and  _373
REMARK  137  A    between atoms: _373  and  _374
REMARK  138  A    between atoms: _376  and  _378
REMARK  139  A    between atoms: _378  and  _379
REMARK  140  A    between atoms: _378  and  _381
REMARK  141  A    between atoms: _381  and  _382
REMARK                            x       y       z     vdW  Elec       q    Type
REMARK                         _______ _______ _______ _____ _____    ______ ____
ROOT
ATOM      1  CA  MET A   1      39.949  59.153   4.690  0.00  0.00    +0.134 C 
ENDROOT
BRANCH   1   2
ATOM      2  N   MET A   1      41.034  60.069   5.059  0.00  0.00    -0.239 NA
ATOM      3  H   MET A   1      40.801  60.980   5.504  0.00  0.00    +0.142 HD
ENDBRANCH   1   2
BRANCH   1   4
ATOM      4  C   MET A   1      39.352  59.826   3.459  0.00  0.00    +0.224 C 
ATOM      5  O   MET A   1      38.602  60.770   3.593  0.00  0.00    -0.287 OA
ENDBRANCH   1   4
BRANCH   1   6
ATOM      6  CB  MET A   1      38.965  59.105   5.848  0.00  0.00    +0.037 C 
BRANCH   6   7
ATOM      7  CG  MET A   1      37.697  58.333   5.549  0.00  0.00    +0.059 C 
BRANCH   7   8
ATOM      8  SD  MET A   1      36.485  58.411   6.932  0.00  0.00    -0.139 S 
ATOM      9  CE  MET A   1      37.451  57.652   8.263  0.00  0.00    +0.069 C 
ENDBRANCH   7   8
ENDBRANCH   6   7
ENDBRANCH   1   6
TORSDOF 5
REMARK  Name = ../refined-set-2016/3d51/3d51_pocket.pdb
REMARK  141 active torsions:
REMARK  status: ('A' for Active; 'I' for Inactive)
REMARK    1  A    between atoms: _1  and  _3
REMARK    2  A    between atoms: _14  and  _17
REMARK    3  A    between atoms: _17  and  _18
REMARK    4  A    between atoms: _25  and  _26
REMARK    5  A    between atoms: _33  and  _34
REMARK    6  A    between atoms: _39  and  _41
REMARK    7  A    between atoms: _41  and  _42
REMARK    8  A    between atoms: _44  and  _46
REMARK    9  A    between atoms: _46  and  _47
REMARK   10  A    between atoms: _46  and  _49
REMARK   11  A    between atoms: _49  and  _50
REMARK   12  A    between atoms: _60  and  _62
REMARK   13  A    between atoms: _62  and  _63
REMARK   14  A    between atoms: _62  and  _65
REMARK   15  A    between atoms: _65  and  _66
REMARK   16  A    between atoms: _69  and  _71
REMARK   17  A    between atoms: _71  and  _72
REMARK   18  A    between atoms: _71  and  _74
REMARK   19  A    between atoms: _74  and  _75
REMARK   20  A    between atoms: _80  and  _81
REMARK   21  A    between atoms: _83  and  _85
REMARK   22  A    between atoms: _85  and  _86
REMARK   23  A    between atoms: _85  and  _88
REMARK   24  A    between atoms: _88  and  _89
REMARK   25  A    between atoms: _89  and  _90
REMARK   26  A    between atoms: _93  and  _95
REMARK   27  A    between atoms: _95  and  _96
REMARK   28  A    between atoms: _95  and  _98
REMARK   29  A    between atoms: _98  and  _99
REMARK   30  A    between atoms: _99  and  _100
REMARK   31  A    between atoms: _102  and  _104
REMARK   32  A    between atoms: _104  and  _105
REMARK   33  A    between atoms: _104  and  _107
REMARK   34  A    between atoms: _107  and  _108
REMARK   35  A    between atoms: _111  and  _113
REMARK   36  A    between atoms: _113  and  _114
REMARK   37  A    between atoms: _113  and  _116
REMARK   38  A    between atoms: _116  and  _117
REMARK   39  A    between atoms: _117  and  _119
REMARK   40  A    between atoms: _119  and  ZN_385
REMARK   41  A    between atoms: _121  and  _122
REMARK   42  A    between atoms: _127  and  _129
REMARK   43  A    between atoms: _129  and  _130
REMARK   44  A    between atoms: _129  and  _132
REMARK   45  A    between atoms: _132  and  _133
REMARK   46  A    between atoms: _139  and  _141
REMARK   47  A    between atoms: _141  and  _142
REMARK   48  A    between atoms: _141  and  _144
REMARK   49  A    between atoms: _144  and  _145
REMARK   50  A    between atoms: _145  and  _146
REMARK   51  A    between atoms: _146  and  _147
REMARK   52  A    between atoms: _156  and  _158
REMARK   53  A    between atoms: _158  and  _159
REMARK   54  A    between atoms: _158  and  _161
REMARK   55  A    between atoms: _161  and  _162
REMARK   56  A    between atoms: _167  and  _168
REMARK   57  A    between atoms: _170  and  _172
REMARK   58  A    between atoms: _172  and  _173
REMARK   59  A    between atoms: _172  and  _175
REMARK   60  A    between atoms: _175  and  _176
REMARK   61  A    between atoms: _178  and  _180
REMARK   62  A    between atoms: _180  and  _181
REMARK   63  A    between atoms: _180  and  _183
REMARK   64  A    between atoms: _183  and  _184
REMARK   65  A    between atoms: _189  and  _190
REMARK   66  A    between atoms: _192  and  _194
REMARK   67  A    between atoms: _194  and  _195
REMARK   68  A    between atoms: _194  and  _197
REMARK   69  A    between atoms: _197  and  _198
REMARK   70  A    between atoms: _201  and  _203
REMARK   71  A    between atoms: _203  and  _204
REMARK   72  A    between atoms: _203  and  _206
REMARK   73  A    between atoms: _206  and  _207
REMARK   74  A    between atoms: _210  and  _212
REMARK   75  A    between atoms: _212  and  _213
REMARK   76  A    between atoms: _212  and  _215
REMARK   77  A    between atoms: _215  and  _216
REMARK   78  A    between atoms: _222  and  _224
REMARK   79  A    between atoms: _224  and  _225
REMARK   80  A    between atoms: _224  and  _227
REMARK   81  A    between atoms: _227  and  _228
REMARK   82  A    between atoms: _233  and  _234
REMARK   83  A    between atoms: _236  and  _238
REMARK   84  A    between atoms: _238  and  _239
REMARK   85  A    between atoms: _238  and  _241
REMARK   86  A    between atoms: _241  and  _242
REMARK   87  A    between atoms: _245  and  _247
REMARK   88  A    between atoms: _247  and  _248
REMARK   89  A    between atoms: _247  and  _250
REMARK   90  A    between atoms: _250  and  _251
REMARK   91  A    between atoms: _261  and  _263
REMARK   92  A    between atoms: _263  and  _264
REMARK   93  A    between atoms: _263  and  _266
REMARK   94  A    between atoms: _266  and  _267
REMARK   95  A    between atoms: _272  and  _274
REMARK   96  A    between atoms: _274  and  _275
REMARK   97  A    between atoms: _274  and  _277
REMARK   98  A    between atoms: _277  and  _278
REMARK   99  A    between atoms: _282  and  ZN_385
REMARK  100  A    between atoms: _283  and  _285
REMARK  101  A    between atoms: _285  and  _286
REMARK  102  A    between atoms: _285  and  _288
REMARK  103  A    between atoms: _288  and  _289
REMARK  104  A    between atoms: _292  and  _294
REMARK  105  A    between atoms: _294  and  _295
REMARK  106  A    between atoms: _297  and  _299
REMARK  107  A    between atoms: _299  and  _300
REMARK  108  A    between atoms: _299  and  _302
REMARK  109  A    between atoms: _302  and  _303
REMARK  110  A    between atoms: _306  and  _308
REMARK  111  A    between atoms: _308  and  _309
REMARK  112  A    between atoms: _308  and  _311
REMARK  113  A    between atoms: _311  and  _312
REMARK  114  A    between atoms: _315  and  _317
REMARK  115  A    between atoms: _317  and  _318
REMARK  116  A    between atoms: _321  and  _323
REMARK  117  A    between atoms: _323  and  _324
REMARK  118  A    between atoms: _323  and  _326
REMARK  119  A    between atoms: _326  and  _327
REMARK  120  A    between atoms: _332  and  _333
REMARK  121  A    between atoms: _335  and  _337
REMARK  122  A    between atoms: _337  and  _338
REMARK  123  A    between atoms: _337  and  _340
REMARK  124  A    between atoms: _340  and  _341
REMARK  125  A    between atoms: _344  and  _346
REMARK  126  A    between atoms: _346  and  _347
REMARK  127  A    between atoms: _346  and  _349
REMARK  128  A    between atoms: _349  and  _350
REMARK  129  A    between atoms: _350  and  _351
REMARK  130  A    between atoms: _354  and  _356
REMARK  131  A    between atoms: _356  and  _357
REMARK  132  A    between atoms: _356  and  _359
REMARK  133  A    between atoms: _359  and  _360
REMARK  134  A    between atoms: _360  and  _361
REMARK  135  A    between atoms: _361  and  _362
REMARK  136  A    between atoms: _371  and  _373
REMARK  137  A    between atoms: _373  and  _374
REMARK  138  A    between atoms: _376  and  _378
REMARK  139  A    between atoms: _378  and  _379
REMARK  140  A    between atoms: _378  and  _381
REMARK  141  A    between atoms: _381  and  _382
REMARK                            x       y       z     vdW  Elec       q    Type
REMARK                         _______ _______ _______ _____ _____    ______ ____
ROOT
ATOM      1  NE  ARG A   1      28.695  60.907   5.938  0.00  0.00    -0.265 N 
ATOM      2  CZ  ARG A   1      27.823  61.646   6.632  0.00  0.00    +0.342 C 
ATOM      3  NH2 ARG A   1      28.265  62.460   7.589  0.00  0.00    -0.292 N 
ATOM      4 HH21 ARG A   1      27.592  63.037   8.132  0.00  0.00    +0.255 HD
ATOM      5 HH22 ARG A   1      29.283  62.518   7.793  0.00  0.00    +0.255 HD
ATOM      6  NH1 ARG A   1      26.513  61.555   6.375  0.00  0.00    -0.292 N 
ATOM      7 HH11 ARG A   1      25.836  62.130   6.915  0.00  0.00    +0.255 HD
ATOM      8 HH12 ARG A   1      26.172  60.909   5.635  0.00  0.00    +0.255 HD
ATOM      9  HE  ARG A   1      29.693  60.939   6.228  0.00  0.00    +0.259 HD
ENDROOT
BRANCH   1  10
ATOM     10  CD  ARG A   1      28.347  60.059   4.804  0.00  0.00    +0.174 C 
BRANCH  10  11
ATOM     11  CG  ARG A   1      28.088  58.605   5.137  0.00  0.00    +0.045 C 
BRANCH  11  12
ATOM     12  CB  ARG A   1      27.930  57.856   3.855  0.00  0.00    +0.029 C 
BRANCH  12  13
ATOM     13  CA  ARG A   1      27.300  56.467   4.054  0.00  0.00    +0.133 C 
BRANCH  13  14
ATOM     14  N   ARG A   1      28.252  55.538   4.653  0.00  0.00    -0.239 NA
ATOM     15  H   ARG A   1      29.269  55.622   4.452  0.00  0.00    +0.142 HD
ENDBRANCH  13  14
BRANCH  13  16
ATOM     16  C   ARG A   1      26.770  55.941   2.762  0.00  0.00    +0.224 C 
ATOM     17  O   ARG A   1      27.290  56.198   1.672  0.00  0.00    -0.287 OA
ENDBRANCH  13  16
ENDBRANCH  12  13
ENDBRANCH  11  12
ENDBRANCH  10  11
ENDBRANCH   1  10
TORSDOF 6
REMARK  Name = ../refined-set-2016/3d51/3d51_pocket.pdb
REMARK  141 active torsions:
REMARK  status: ('A' for Active; 'I' for Inactive)
REMARK    1  A    between atoms: _1  and  _3
REMARK    2  A    between atoms: _14  and  _17
REMARK    3  A    between atoms: _17  and  _18
REMARK    4  A    between atoms: _25  and  _26
REMARK    5  A    between atoms: _33  and  _34
REMARK    6  A    between atoms: _39  and  _41
REMARK    7  A    between atoms: _41  and  _42
REMARK    8  A    between atoms: _44  and  _46
REMARK    9  A    between atoms: _46  and  _47
REMARK   10  A    between atoms: _46  and  _49
REMARK   11  A    between atoms: _49  and  _50
REMARK   12  A    between atoms: _60  and  _62
REMARK   13  A    between atoms: _62  and  _63
REMARK   14  A    between atoms: _62  and  _65
REMARK   15  A    between atoms: _65  and  _66
REMARK   16  A    between atoms: _69  and  _71
REMARK   17  A    between atoms: _71  and  _72
REMARK   18  A    between atoms: _71  and  _74
REMARK   19  A    between atoms: _74  and  _75
REMARK   20  A    between atoms: _80  and  _81
REMARK   21  A    between atoms: _83  and  _85
REMARK   22  A    between atoms: _85  and  _86
REMARK   23  A    between atoms: _85  and  _88
REMARK   24  A    between atoms: _88  and  _89
REMARK   25  A    between atoms: _89  and  _90
REMARK   26  A    between atoms: _93  and  _95
REMARK   27  A    between atoms: _95  and  _96
REMARK   28  A    between atoms: _95  and  _98
REMARK   29  A    between atoms: _98  and  _99
REMARK   30  A    between atoms: _99  and  _100
REMARK   31  A    between atoms: _102  and  _104
REMARK   32  A    between atoms: _104  and  _105
REMARK   33  A    between atoms: _104  and  _107
REMARK   34  A    between atoms: _107  and  _108
REMARK   35  A    between atoms: _111  and  _113
REMARK   36  A    between atoms: _113  and  _114
REMARK   37  A    between atoms: _113  and  _116
REMARK   38  A    between atoms: _116  and  _117
REMARK   39  A    between atoms: _117  and  _119
REMARK   40  A    between atoms: _119  and  ZN_385
REMARK   41  A    between atoms: _121  and  _122
REMARK   42  A    between atoms: _127  and  _129
REMARK   43  A    between atoms: _129  and  _130
REMARK   44  A    between atoms: _129  and  _132
REMARK   45  A    between atoms: _132  and  _133
REMARK   46  A    between atoms: _139  and  _141
REMARK   47  A    between atoms: _141  and  _142
REMARK   48  A    between atoms: _141  and  _144
REMARK   49  A    between atoms: _144  and  _145
REMARK   50  A    between atoms: _145  and  _146
REMARK   51  A    between atoms: _146  and  _147
REMARK   52  A    between atoms: _156  and  _158
REMARK   53  A    between atoms: _158  and  _159
REMARK   54  A    between atoms: _158  and  _161
REMARK   55  A    between atoms: _161  and  _162
REMARK   56  A    between atoms: _167  and  _168
REMARK   57  A    between atoms: _170  and  _172
REMARK   58  A    between atoms: _172  and  _173
REMARK   59  A    between atoms: _172  and  _175
REMARK   60  A    between atoms: _175  and  _176
REMARK   61  A    between atoms: _178  and  _180
REMARK   62  A    between atoms: _180  and  _181
REMARK   63  A    between atoms: _180  and  _183
REMARK   64  A    between atoms: _183  and  _184
REMARK   65  A    between atoms: _189  and  _190
REMARK   66  A    between atoms: _192  and  _194
REMARK   67  A    between atoms: _194  and  _195
REMARK   68  A    between atoms: _194  and  _197
REMARK   69  A    between atoms: _197  and  _198
REMARK   70  A    between atoms: _201  and  _203
REMARK   71  A    between atoms: _203  and  _204
REMARK   72  A    between atoms: _203  and  _206
REMARK   73  A    between atoms: _206  and  _207
REMARK   74  A    between atoms: _210  and  _212
REMARK   75  A    between atoms: _212  and  _213
REMARK   76  A    between atoms: _212  and  _215
REMARK   77  A    between atoms: _215  and  _216
REMARK   78  A    between atoms: _222  and  _224
REMARK   79  A    between atoms: _224  and  _225
REMARK   80  A    between atoms: _224  and  _227
REMARK   81  A    between atoms: _227  and  _228
REMARK   82  A    between atoms: _233  and  _234
REMARK   83  A    between atoms: _236  and  _238
REMARK   84  A    between atoms: _238  and  _239
REMARK   85  A    between atoms: _238  and  _241
REMARK   86  A    between atoms: _241  and  _242
REMARK   87  A    between atoms: _245  and  _247
REMARK   88  A    between atoms: _247  and  _248
REMARK   89  A    between atoms: _247  and  _250
REMARK   90  A    between atoms: _250  and  _251
REMARK   91  A    between atoms: _261  and  _263
REMARK   92  A    between atoms: _263  and  _264
REMARK   93  A    between atoms: _263  and  _266
REMARK   94  A    between atoms: _266  and  _267
REMARK   95  A    between atoms: _272  and  _274
REMARK   96  A    between atoms: _274  and  _275
REMARK   97  A    between atoms: _274  and  _277
REMARK   98  A    between atoms: _277  and  _278
REMARK   99  A    between atoms: _282  and  ZN_385
REMARK  100  A    between atoms: _283  and  _285
REMARK  101  A    between atoms: _285  and  _286
REMARK  102  A    between atoms: _285  and  _288
REMARK  103  A    between atoms: _288  and  _289
REMARK  104  A    between atoms: _292  and  _294
REMARK  105  A    between atoms: _294  and  _295
REMARK  106  A    between atoms: _297  and  _299
REMARK  107  A    between atoms: _299  and  _300
REMARK  108  A    between atoms: _299  and  _302
REMARK  109  A    between atoms: _302  and  _303
REMARK  110  A    between atoms: _306  and  _308
REMARK  111  A    between atoms: _308  and  _309
REMARK  112  A    between atoms: _308  and  _311
REMARK  113  A    between atoms: _311  and  _312
REMARK  114  A    between atoms: _315  and  _317
REMARK  115  A    between atoms: _317  and  _318
REMARK  116  A    between atoms: _321  and  _323
REMARK  117  A    between atoms: _323  and  _324
REMARK  118  A    between atoms: _323  and  _326
REMARK  119  A    between atoms: _326  and  _327
REMARK  120  A    between atoms: _332  and  _333
REMARK  121  A    between atoms: _335  and  _337
REMARK  122  A    between atoms: _337  and  _338
REMARK  123  A    between atoms: _337  and  _340
REMARK  124  A    between atoms: _340  and  _341
REMARK  125  A    between atoms: _344  and  _346
REMARK  126  A    between atoms: _346  and  _347
REMARK  127  A    between atoms: _346  and  _349
REMARK  128  A    between atoms: _349  and  _350
REMARK  129  A    between atoms: _350  and  _351
REMARK  130  A    between atoms: _354  and  _356
REMARK  131  A    between atoms: _356  and  _357
REMARK  132  A    between atoms: _356  and  _359
REMARK  133  A    between atoms: _359  and  _360
REMARK  134  A    between atoms: _360  and  _361
REMARK  135  A    between atoms: _361  and  _362
REMARK  136  A    between atoms: _371  and  _373
REMARK  137  A    between atoms: _373  and  _374
REMARK  138  A    between atoms: _376  and  _378
REMARK  139  A    between atoms: _378  and  _379
REMARK  140  A    between atoms: _378  and  _381
REMARK  141  A    between atoms: _381  and  _382
REMARK                            x       y       z     vdW  Elec       q    Type
REMARK                         _______ _______ _______ _____ _____    ______ ____
ROOT
ATOM      1  CA  SER A   2      25.188  57.889  11.358  0.00  0.00    +0.178 C 
ENDROOT
BRANCH   1   3
ATOM      2  C   TYR A   1      23.238  57.486  10.008  0.00  0.00    +0.239 C 
ATOM      3  N   SER A   2      23.933  57.198  11.093  0.00  0.00    -0.295 N 
ATOM      4  H   SER A   2      23.585  56.478  11.758  0.00  0.00    +0.150 HD
ATOM      5  O   TYR A   1      23.608  58.330   9.184  0.00  0.00    -0.274 OA
BRANCH   2   6
ATOM      6  CA  TYR A   1      21.907  56.792   9.809  0.00  0.00    +0.149 C 
BRANCH   6   7
ATOM      7  N   TYR A   1      21.838  55.483  10.440  0.00  0.00    -0.238 NA
ATOM      8  H   TYR A   1      21.260  55.364  11.296  0.00  0.00    +0.142 HD
ENDBRANCH   6   7
BRANCH   6   9
ATOM      9  CB  TYR A   1      20.744  57.636  10.341  0.00  0.00    +0.053 C 
BRANCH   9  10
ATOM     10  CG  TYR A   1      20.826  59.141  10.188  0.00  0.00    -0.020 A 
ATOM     11  CD2 TYR A   1      21.222  59.910  11.260  0.00  0.00    -0.001 A 
ATOM     12  CE2 TYR A   1      21.281  61.277  11.171  0.00  0.00    +0.036 A 
ATOM     13  CZ  TYR A   1      20.933  61.892  10.001  0.00  0.00    +0.134 A 
ATOM     14  CE1 TYR A   1      20.516  61.179   8.886  0.00  0.00    +0.036 A 
ATOM     15  CD1 TYR A   1      20.461  59.779   8.979  0.00  0.00    -0.001 A 
BRANCH  13  16
ATOM     16  OH  TYR A   1      21.017  63.266  10.014  0.00  0.00    -0.506 OA
ATOM     17  HH  TYR A   1      20.748  63.620   9.130  0.00  0.00    +0.292 HD
ENDBRANCH  13  16
ENDBRANCH   9  10
ENDBRANCH   6   9
ENDBRANCH   2   6
ENDBRANCH   1   3
BRANCH   1  18
ATOM     18  C   SER A   2      26.185  56.959  11.988  0.00  0.00    +0.243 C 
ATOM     19  O   SER A   2      25.826  55.858  12.429  0.00  0.00    -0.273 OA
ATOM     20  N   TYR A   3      27.439  57.402  12.082  0.00  0.00    -0.298 N 
ATOM     21  H   TYR A   3      27.708  58.285  11.602  0.00  0.00    +0.150 HD
BRANCH  20  22
ATOM     22  CA  TYR A   3      28.436  56.668  12.846  0.00  0.00    +0.141 C 
BRANCH  22  23
ATOM     23  C   TYR A   3      28.524  57.128  14.300  0.00  0.00    +0.227 C 
ATOM     24  O   TYR A   3      29.403  56.645  15.036  0.00  0.00    -0.286 OA
ENDBRANCH  22  23
BRANCH  22  25
ATOM     25  CB  TYR A   3      29.835  56.831  12.195  0.00  0.00    +0.054 C 
BRANCH  25  26
ATOM     26  CG  TYR A   3      30.230  58.300  12.030  0.00  0.00    -0.020 A 
ATOM     27  CD2 TYR A   3      30.634  59.076  13.117  0.00  0.00    -0.001 A 
ATOM     28  CE2 TYR A   3      30.951  60.447  12.951  0.00  0.00    +0.036 A 
ATOM     29  CZ  TYR A   3      30.915  60.994  11.669  0.00  0.00    +0.134 A 
ATOM     30  CE1 TYR A   3      30.517  60.256  10.586  0.00  0.00    +0.036 A 
ATOM     31  CD1 TYR A   3      30.191  58.897  10.767  0.00  0.00    -0.001 A 
BRANCH  29  32
ATOM     32  OH  TYR A   3      31.186  62.347  11.456  0.00  0.00    -0.506 OA
ATOM     33  HH  TYR A   3      31.462  62.766  12.310  0.00  0.00    +0.292 HD
ENDBRANCH  29  32
ENDBRANCH  25  26
ENDBRANCH  22  25
ENDBRANCH  20  22
ENDBRANCH   1  18
BRANCH   1  34
ATOM     34  CB  SER A   2      24.897  59.059  12.302  0.00  0.00    +0.166 C 
BRANCH  34  35
ATOM     35  OG  SER A   2      26.082  59.754  12.712  0.00  0.00    -0.380 OA
ATOM     36  H   SER A   2      26.543  60.117  11.915  0.00  0.00    +0.211 HD
ENDBRANCH  34  35
ENDBRANCH   1  34
TORSDOF 14
REMARK  Name = ../refined-set-2016/3d51/3d51_pocket.pdb
REMARK  141 active torsions:
REMARK  status: ('A' for Active; 'I' for Inactive)
REMARK    1  A    between atoms: _1  and  _3
REMARK    2  A    between atoms: _14  and  _17
REMARK    3  A    between atoms: _17  and  _18
REMARK    4  A    between atoms: _25  and  _26
REMARK    5  A    between atoms: _33  and  _34
REMARK    6  A    between atoms: _39  and  _41
REMARK    7  A    between atoms: _41  and  _42
REMARK    8  A    between atoms: _44  and  _46
REMARK    9  A    between atoms: _46  and  _47
REMARK   10  A    between atoms: _46  and  _49
REMARK   11  A    between atoms: _49  and  _50
REMARK   12  A    between atoms: _60  and  _62
REMARK   13  A    between atoms: _62  and  _63
REMARK   14  A    between atoms: _62  and  _65
REMARK   15  A    between atoms: _65  and  _66
REMARK   16  A    between atoms: _69  and  _71
REMARK   17  A    between atoms: _71  and  _72
REMARK   18  A    between atoms: _71  and  _74
REMARK   19  A    between atoms: _74  and  _75
REMARK   20  A    between atoms: _80  and  _81
REMARK   21  A    between atoms: _83  and  _85
REMARK   22  A    between atoms: _85  and  _86
REMARK   23  A    between atoms: _85  and  _88
REMARK   24  A    between atoms: _88  and  _89
REMARK   25  A    between atoms: _89  and  _90
REMARK   26  A    between atoms: _93  and  _95
REMARK   27  A    between atoms: _95  and  _96
REMARK   28  A    between atoms: _95  and  _98
REMARK   29  A    between atoms: _98  and  _99
REMARK   30  A    between atoms: _99  and  _100
REMARK   31  A    between atoms: _102  and  _104
REMARK   32  A    between atoms: _104  and  _105
REMARK   33  A    between atoms: _104  and  _107
REMARK   34  A    between atoms: _107  and  _108
REMARK   35  A    between atoms: _111  and  _113
REMARK   36  A    between atoms: _113  and  _114
REMARK   37  A    between atoms: _113  and  _116
REMARK   38  A    between atoms: _116  and  _117
REMARK   39  A    between atoms: _117  and  _119
REMARK   40  A    between atoms: _119  and  ZN_385
REMARK   41  A    between atoms: _121  and  _122
REMARK   42  A    between atoms: _127  and  _129
REMARK   43  A    between atoms: _129  and  _130
REMARK   44  A    between atoms: _129  and  _132
REMARK   45  A    between atoms: _132  and  _133
REMARK   46  A    between atoms: _139  and  _141
REMARK   47  A    between atoms: _141  and  _142
REMARK   48  A    between atoms: _141  and  _144
REMARK   49  A    between atoms: _144  and  _145
REMARK   50  A    between atoms: _145  and  _146
REMARK   51  A    between atoms: _146  and  _147
REMARK   52  A    between atoms: _156  and  _158
REMARK   53  A    between atoms: _158  and  _159
REMARK   54  A    between atoms: _158  and  _161
REMARK   55  A    between atoms: _161  and  _162
REMARK   56  A    between atoms: _167  and  _168
REMARK   57  A    between atoms: _170  and  _172
REMARK   58  A    between atoms: _172  and  _173
REMARK   59  A    between atoms: _172  and  _175
REMARK   60  A    between atoms: _175  and  _176
REMARK   61  A    between atoms: _178  and  _180
REMARK   62  A    between atoms: _180  and  _181
REMARK   63  A    between atoms: _180  and  _183
REMARK   64  A    between atoms: _183  and  _184
REMARK   65  A    between atoms: _189  and  _190
REMARK   66  A    between atoms: _192  and  _194
REMARK   67  A    between atoms: _194  and  _195
REMARK   68  A    between atoms: _194  and  _197
REMARK   69  A    between atoms: _197  and  _198
REMARK   70  A    between atoms: _201  and  _203
REMARK   71  A    between atoms: _203  and  _204
REMARK   72  A    between atoms: _203  and  _206
REMARK   73  A    between atoms: _206  and  _207
REMARK   74  A    between atoms: _210  and  _212
REMARK   75  A    between atoms: _212  and  _213
REMARK   76  A    between atoms: _212  and  _215
REMARK   77  A    between atoms: _215  and  _216
REMARK   78  A    between atoms: _222  and  _224
REMARK   79  A    between atoms: _224  and  _225
REMARK   80  A    between atoms: _224  and  _227
REMARK   81  A    between atoms: _227  and  _228
REMARK   82  A    between atoms: _233  and  _234
REMARK   83  A    between atoms: _236  and  _238
REMARK   84  A    between atoms: _238  and  _239
REMARK   85  A    between atoms: _238  and  _241
REMARK   86  A    between atoms: _241  and  _242
REMARK   87  A    between atoms: _245  and  _247
REMARK   88  A    between atoms: _247  and  _248
REMARK   89  A    between atoms: _247  and  _250
REMARK   90  A    between atoms: _250  and  _251
REMARK   91  A    between atoms: _261  and  _263
REMARK   92  A    between atoms: _263  and  _264
REMARK   93  A    between atoms: _263  and  _266
REMARK   94  A    between atoms: _266  and  _267
REMARK   95  A    between atoms: _272  and  _274
REMARK   96  A    between atoms: _274  and  _275
REMARK   97  A    between atoms: _274  and  _277
REMARK   98  A    between atoms: _277  and  _278
REMARK   99  A    between atoms: _282  and  ZN_385
REMARK  100  A    between atoms: _283  and  _285
REMARK  101  A    between atoms: _285  and  _286
REMARK  102  A    between atoms: _285  and  _288
REMARK  103  A    between atoms: _288  and  _289
REMARK  104  A    between atoms: _292  and  _294
REMARK  105  A    between atoms: _294  and  _295
REMARK  106  A    between atoms: _297  and  _299
REMARK  107  A    between atoms: _299  and  _300
REMARK  108  A    between atoms: _299  and  _302
REMARK  109  A    between atoms: _302  and  _303
REMARK  110  A    between atoms: _306  and  _308
REMARK  111  A    between atoms: _308  and  _309
REMARK  112  A    between atoms: _308  and  _311
REMARK  113  A    between atoms: _311  and  _312
REMARK  114  A    between atoms: _315  and  _317
REMARK  115  A    between atoms: _317  and  _318
REMARK  116  A    between atoms: _321  and  _323
REMARK  117  A    between atoms: _323  and  _324
REMARK  118  A    between atoms: _323  and  _326
REMARK  119  A    between atoms: _326  and  _327
REMARK  120  A    between atoms: _332  and  _333
REMARK  121  A    between atoms: _335  and  _337
REMARK  122  A    between atoms: _337  and  _338
REMARK  123  A    between atoms: _337  and  _340
REMARK  124  A    between atoms: _340  and  _341
REMARK  125  A    between atoms: _344  and  _346
REMARK  126  A    between atoms: _346  and  _347
REMARK  127  A    between atoms: _346  and  _349
REMARK  128  A    between atoms: _349  and  _350
REMARK  129  A    between atoms: _350  and  _351
REMARK  130  A    between atoms: _354  and  _356
REMARK  131  A    between atoms: _356  and  _357
REMARK  132  A    between atoms: _356  and  _359
REMARK  133  A    between atoms: _359  and  _360
REMARK  134  A    between atoms: _360  and  _361
REMARK  135  A    between atoms: _361  and  _362
REMARK  136  A    between atoms: _371  and  _373
REMARK  137  A    between atoms: _373  and  _374
REMARK  138  A    between atoms: _376  and  _378
REMARK  139  A    between atoms: _378  and  _379
REMARK  140  A    between atoms: _378  and  _381
REMARK  141  A    between atoms: _381  and  _382
REMARK                            x       y       z     vdW  Elec       q    Type
REMARK                         _______ _______ _______ _____ _____    ______ ____
ROOT
ATOM      1  CA  ASP A   2      33.768  63.697  15.727  0.00  0.00    +0.160 C 
ENDROOT
BRANCH   1   4
ATOM      2  C   ASP A   1      33.135  61.581  16.717  0.00  0.00    +0.239 C 
ATOM      3  O   ASP A   1      34.315  61.241  16.887  0.00  0.00    -0.274 OA
ATOM      4  N   ASP A   2      32.764  62.754  16.217  0.00  0.00    -0.297 N 
ATOM      5  H   ASP A   2      31.755  63.003  16.174  0.00  0.00    +0.150 HD
BRANCH   2   6
ATOM      6  CA  ASP A   1      31.968  60.631  17.079  0.00  0.00    +0.156 C 
BRANCH   6   7
ATOM      7  N   ASP A   1      32.588  59.516  17.772  0.00  0.00    -0.238 NA
ATOM      8  H   ASP A   1      33.591  59.604  18.034  0.00  0.00    +0.142 HD
ENDBRANCH   6   7
BRANCH   6   9
ATOM      9  CB  ASP A   1      30.945  61.290  18.031  0.00  0.00    +0.140 C 
BRANCH   9  10
ATOM     10  CG  ASP A   1      29.837  62.060  17.296  0.00  0.00    +0.367 C 
ATOM     11  OD2 ASP A   1      28.793  62.308  17.953  0.00  0.00    -0.246 OA
ATOM     12  OD1 ASP A   1      30.009  62.426  16.109  0.00  0.00    -0.246 OA
ENDBRANCH   9  10
ENDBRANCH   6   9
ENDBRANCH   2   6
ENDBRANCH   1   4
BRANCH   1  13
ATOM     13  C   ASP A   2      34.639  64.181  16.853  0.00  0.00    +0.241 C 
ATOM     14  O   ASP A   2      34.142  64.645  17.891  0.00  0.00    -0.273 OA
ATOM     15  N   PHE A   3      35.947  64.117  16.632  0.00  0.00    -0.298 N 
ATOM     16  H   PHE A   3      36.293  63.668  15.760  0.00  0.00    +0.150 HD
BRANCH  15  17
ATOM     17  CA  PHE A   3      36.913  64.662  17.584  0.00  0.00    +0.141 C 
BRANCH  17  18
ATOM     18  C   PHE A   3      36.618  64.235  19.025  0.00  0.00    +0.227 C 
ATOM     19  O   PHE A   3      36.800  64.984  19.993  0.00  0.00    -0.286 OA
ENDBRANCH  17  18
BRANCH  17  20
ATOM     20  CB  PHE A   3      37.065  66.184  17.443  0.00  0.00    +0.054 C 
BRANCH  20  21
ATOM     21  CG  PHE A   3      37.609  66.603  16.115  0.00  0.00    -0.020 A 
ATOM     22  CD2 PHE A   3      38.979  66.564  15.872  0.00  0.00    -0.004 A 
ATOM     23  CE2 PHE A   3      39.485  66.949  14.633  0.00  0.00    -0.000 A 
ATOM     24  CZ  PHE A   3      38.609  67.362  13.635  0.00  0.00    -0.000 A 
ATOM     25  CE1 PHE A   3      37.271  67.398  13.850  0.00  0.00    -0.000 A 
ATOM     26  CD1 PHE A   3      36.754  67.029  15.099  0.00  0.00    -0.004 A 
ENDBRANCH  20  21
ENDBRANCH  17  20
ENDBRANCH  15  17
ENDBRANCH   1  13
BRANCH   1  27
ATOM     27  CB  ASP A   2      33.093  64.912  15.097  0.00  0.00    +0.143 C 
BRANCH  27  28
ATOM     28  CG  ASP A   2      32.439  64.596  13.791  0.00  0.00    +0.367 C 
ATOM     29  OD2 ASP A   2      32.302  63.411  13.427  0.00  0.00    -0.246 OA
ATOM     30  OD1 ASP A   2      32.078  65.578  13.100  0.00  0.00    -0.246 OA
ENDBRANCH  27  28
ENDBRANCH   1  27
TORSDOF 12
REMARK  Name = ../refined-set-2016/3d51/3d51_pocket.pdb
REMARK  141 active torsions:
REMARK  status: ('A' for Active; 'I' for Inactive)
REMARK    1  A    between atoms: _1  and  _3
REMARK    2  A    between atoms: _14  and  _17
REMARK    3  A    between atoms: _17  and  _18
REMARK    4  A    between atoms: _25  and  _26
REMARK    5  A    between atoms: _33  and  _34
REMARK    6  A    between atoms: _39  and  _41
REMARK    7  A    between atoms: _41  and  _42
REMARK    8  A    between atoms: _44  and  _46
REMARK    9  A    between atoms: _46  and  _47
REMARK   10  A    between atoms: _46  and  _49
REMARK   11  A    between atoms: _49  and  _50
REMARK   12  A    between atoms: _60  and  _62
REMARK   13  A    between atoms: _62  and  _63
REMARK   14  A    between atoms: _62  and  _65
REMARK   15  A    between atoms: _65  and  _66
REMARK   16  A    between atoms: _69  and  _71
REMARK   17  A    between atoms: _71  and  _72
REMARK   18  A    between atoms: _71  and  _74
REMARK   19  A    between atoms: _74  and  _75
REMARK   20  A    between atoms: _80  and  _81
REMARK   21  A    between atoms: _83  and  _85
REMARK   22  A    between atoms: _85  and  _86
REMARK   23  A    between atoms: _85  and  _88
REMARK   24  A    between atoms: _88  and  _89
REMARK   25  A    between atoms: _89  and  _90
REMARK   26  A    between atoms: _93  and  _95
REMARK   27  A    between atoms: _95  and  _96
REMARK   28  A    between atoms: _95  and  _98
REMARK   29  A    between atoms: _98  and  _99
REMARK   30  A    between atoms: _99  and  _100
REMARK   31  A    between atoms: _102  and  _104
REMARK   32  A    between atoms: _104  and  _105
REMARK   33  A    between atoms: _104  and  _107
REMARK   34  A    between atoms: _107  and  _108
REMARK   35  A    between atoms: _111  and  _113
REMARK   36  A    between atoms: _113  and  _114
REMARK   37  A    between atoms: _113  and  _116
REMARK   38  A    between atoms: _116  and  _117
REMARK   39  A    between atoms: _117  and  _119
REMARK   40  A    between atoms: _119  and  ZN_385
REMARK   41  A    between atoms: _121  and  _122
REMARK   42  A    between atoms: _127  and  _129
REMARK   43  A    between atoms: _129  and  _130
REMARK   44  A    between atoms: _129  and  _132
REMARK   45  A    between atoms: _132  and  _133
REMARK   46  A    between atoms: _139  and  _141
REMARK   47  A    between atoms: _141  and  _142
REMARK   48  A    between atoms: _141  and  _144
REMARK   49  A    between atoms: _144  and  _145
REMARK   50  A    between atoms: _145  and  _146
REMARK   51  A    between atoms: _146  and  _147
REMARK   52  A    between atoms: _156  and  _158
REMARK   53  A    between atoms: _158  and  _159
REMARK   54  A    between atoms: _158  and  _161
REMARK   55  A    between atoms: _161  and  _162
REMARK   56  A    between atoms: _167  and  _168
REMARK   57  A    between atoms: _170  and  _172
REMARK   58  A    between atoms: _172  and  _173
REMARK   59  A    between atoms: _172  and  _175
REMARK   60  A    between atoms: _175  and  _176
REMARK   61  A    between atoms: _178  and  _180
REMARK   62  A    between atoms: _180  and  _181
REMARK   63  A    between atoms: _180  and  _183
REMARK   64  A    between atoms: _183  and  _184
REMARK   65  A    between atoms: _189  and  _190
REMARK   66  A    between atoms: _192  and  _194
REMARK   67  A    between atoms: _194  and  _195
REMARK   68  A    between atoms: _194  and  _197
REMARK   69  A    between atoms: _197  and  _198
REMARK   70  A    between atoms: _201  and  _203
REMARK   71  A    between atoms: _203  and  _204
REMARK   72  A    between atoms: _203  and  _206
REMARK   73  A    between atoms: _206  and  _207
REMARK   74  A    between atoms: _210  and  _212
REMARK   75  A    between atoms: _212  and  _213
REMARK   76  A    between atoms: _212  and  _215
REMARK   77  A    between atoms: _215  and  _216
REMARK   78  A    between atoms: _222  and  _224
REMARK   79  A    between atoms: _224  and  _225
REMARK   80  A    between atoms: _224  and  _227
REMARK   81  A    between atoms: _227  and  _228
REMARK   82  A    between atoms: _233  and  _234
REMARK   83  A    between atoms: _236  and  _238
REMARK   84  A    between atoms: _238  and  _239
REMARK   85  A    between atoms: _238  and  _241
REMARK   86  A    between atoms: _241  and  _242
REMARK   87  A    between atoms: _245  and  _247
REMARK   88  A    between atoms: _247  and  _248
REMARK   89  A    between atoms: _247  and  _250
REMARK   90  A    between atoms: _250  and  _251
REMARK   91  A    between atoms: _261  and  _263
REMARK   92  A    between atoms: _263  and  _264
REMARK   93  A    between atoms: _263  and  _266
REMARK   94  A    between atoms: _266  and  _267
REMARK   95  A    between atoms: _272  and  _274
REMARK   96  A    between atoms: _274  and  _275
REMARK   97  A    between atoms: _274  and  _277
REMARK   98  A    between atoms: _277  and  _278
REMARK   99  A    between atoms: _282  and  ZN_385
REMARK  100  A    between atoms: _283  and  _285
REMARK  101  A    between atoms: _285  and  _286
REMARK  102  A    between atoms: _285  and  _288
REMARK  103  A    between atoms: _288  and  _289
REMARK  104  A    between atoms: _292  and  _294
REMARK  105  A    between atoms: _294  and  _295
REMARK  106  A    between atoms: _297  and  _299
REMARK  107  A    between atoms: _299  and  _300
REMARK  108  A    between atoms: _299  and  _302
REMARK  109  A    between atoms: _302  and  _303
REMARK  110  A    between atoms: _306  and  _308
REMARK  111  A    between atoms: _308  and  _309
REMARK  112  A    between atoms: _308  and  _311
REMARK  113  A    between atoms: _311  and  _312
REMARK  114  A    between atoms: _315  and  _317
REMARK  115  A    between atoms: _317  and  _318
REMARK  116  A    between atoms: _321  and  _323
REMARK  117  A    between atoms: _323  and  _324
REMARK  118  A    between atoms: _323  and  _326
REMARK  119  A    between atoms: _326  and  _327
REMARK  120  A    between atoms: _332  and  _333
REMARK  121  A    between atoms: _335  and  _337
REMARK  122  A    between atoms: _337  and  _338
REMARK  123  A    between atoms: _337  and  _340
REMARK  124  A    between atoms: _340  and  _341
REMARK  125  A    between atoms: _344  and  _346
REMARK  126  A    between atoms: _346  and  _347
REMARK  127  A    between atoms: _346  and  _349
REMARK  128  A    between atoms: _349  and  _350
REMARK  129  A    between atoms: _350  and  _351
REMARK  130  A    between atoms: _354  and  _356
REMARK  131  A    between atoms: _356  and  _357
REMARK  132  A    between atoms: _356  and  _359
REMARK  133  A    between atoms: _359  and  _360
REMARK  134  A    between atoms: _360  and  _361
REMARK  135  A    between atoms: _361  and  _362
REMARK  136  A    between atoms: _371  and  _373
REMARK  137  A    between atoms: _373  and  _374
REMARK  138  A    between atoms: _376  and  _378
REMARK  139  A    between atoms: _378  and  _379
REMARK  140  A    between atoms: _378  and  _381
REMARK  141  A    between atoms: _381  and  _382
REMARK                            x       y       z     vdW  Elec       q    Type
REMARK                         _______ _______ _______ _____ _____    ______ ____
ROOT
ATOM      1  CG  TYR A   1      24.964  59.456   0.961  0.00  0.00    -0.020 A 
ATOM      2  CD2 TYR A   1      24.504  58.371   1.709  0.00  0.00    -0.001 A 
ATOM      3  CE2 TYR A   1      24.343  58.469   3.070  0.00  0.00    +0.036 A 
ATOM      4  CZ  TYR A   1      24.720  59.653   3.732  0.00  0.00    +0.134 A 
ATOM      5  CE1 TYR A   1      25.181  60.750   2.973  0.00  0.00    +0.036 A 
ATOM      6  CD1 TYR A   1      25.294  60.622   1.622  0.00  0.00    -0.001 A 
ENDROOT
BRANCH   4   7
ATOM      7  OH  TYR A   1      24.636  59.782   5.087  0.00  0.00    -0.506 OA
ATOM      8  HH  TYR A   1      24.299  58.937   5.478  0.00  0.00    +0.292 HD
ENDBRANCH   4   7
BRANCH   1   9
ATOM      9  CB  TYR A   1      25.173  59.354  -0.512  0.00  0.00    +0.051 C 
BRANCH   9  10
ATOM     10  CA  TYR A   1      23.965  59.032  -1.365  0.00  0.00    +0.137 C 
BRANCH  10  11
ATOM     11  N   TYR A   1      24.387  59.130  -2.734  0.00  0.00    -0.239 NA
ATOM     12  H   TYR A   1      25.336  59.509  -2.928  0.00  0.00    +0.142 HD
ENDBRANCH  10  11
BRANCH  10  13
ATOM     13  C   TYR A   1      22.845  60.012  -1.054  0.00  0.00    +0.224 C 
ATOM     14  O   TYR A   1      22.867  61.169  -1.493  0.00  0.00    -0.287 OA
ENDBRANCH  10  13
ENDBRANCH   9  10
ENDBRANCH   1   9
TORSDOF 5
REMARK  Name = ../refined-set-2016/3d51/3d51_pocket.pdb
REMARK  141 active torsions:
REMARK  status: ('A' for Active; 'I' for Inactive)
REMARK    1  A    between atoms: _1  and  _3
REMARK    2  A    between atoms: _14  and  _17
REMARK    3  A    between atoms: _17  and  _18
REMARK    4  A    between atoms: _25  and  _26
REMARK    5  A    between atoms: _33  and  _34
REMARK    6  A    between atoms: _39  and  _41
REMARK    7  A    between atoms: _41  and  _42
REMARK    8  A    between atoms: _44  and  _46
REMARK    9  A    between atoms: _46  and  _47
REMARK   10  A    between atoms: _46  and  _49
REMARK   11  A    between atoms: _49  and  _50
REMARK   12  A    between atoms: _60  and  _62
REMARK   13  A    between atoms: _62  and  _63
REMARK   14  A    between atoms: _62  and  _65
REMARK   15  A    between atoms: _65  and  _66
REMARK   16  A    between atoms: _69  and  _71
REMARK   17  A    between atoms: _71  and  _72
REMARK   18  A    between atoms: _71  and  _74
REMARK   19  A    between atoms: _74  and  _75
REMARK   20  A    between atoms: _80  and  _81
REMARK   21  A    between atoms: _83  and  _85
REMARK   22  A    between atoms: _85  and  _86
REMARK   23  A    between atoms: _85  and  _88
REMARK   24  A    between atoms: _88  and  _89
REMARK   25  A    between atoms: _89  and  _90
REMARK   26  A    between atoms: _93  and  _95
REMARK   27  A    between atoms: _95  and  _96
REMARK   28  A    between atoms: _95  and  _98
REMARK   29  A    between atoms: _98  and  _99
REMARK   30  A    between atoms: _99  and  _100
REMARK   31  A    between atoms: _102  and  _104
REMARK   32  A    between atoms: _104  and  _105
REMARK   33  A    between atoms: _104  and  _107
REMARK   34  A    between atoms: _107  and  _108
REMARK   35  A    between atoms: _111  and  _113
REMARK   36  A    between atoms: _113  and  _114
REMARK   37  A    between atoms: _113  and  _116
REMARK   38  A    between atoms: _116  and  _117
REMARK   39  A    between atoms: _117  and  _119
REMARK   40  A    between atoms: _119  and  ZN_385
REMARK   41  A    between atoms: _121  and  _122
REMARK   42  A    between atoms: _127  and  _129
REMARK   43  A    between atoms: _129  and  _130
REMARK   44  A    between atoms: _129  and  _132
REMARK   45  A    between atoms: _132  and  _133
REMARK   46  A    between atoms: _139  and  _141
REMARK   47  A    between atoms: _141  and  _142
REMARK   48  A    between atoms: _141  and  _144
REMARK   49  A    between atoms: _144  and  _145
REMARK   50  A    between atoms: _145  and  _146
REMARK   51  A    between atoms: _146  and  _147
REMARK   52  A    between atoms: _156  and  _158
REMARK   53  A    between atoms: _158  and  _159
REMARK   54  A    between atoms: _158  and  _161
REMARK   55  A    between atoms: _161  and  _162
REMARK   56  A    between atoms: _167  and  _168
REMARK   57  A    between atoms: _170  and  _172
REMARK   58  A    between atoms: _172  and  _173
REMARK   59  A    between atoms: _172  and  _175
REMARK   60  A    between atoms: _175  and  _176
REMARK   61  A    between atoms: _178  and  _180
REMARK   62  A    between atoms: _180  and  _181
REMARK   63  A    between atoms: _180  and  _183
REMARK   64  A    between atoms: _183  and  _184
REMARK   65  A    between atoms: _189  and  _190
REMARK   66  A    between atoms: _192  and  _194
REMARK   67  A    between atoms: _194  and  _195
REMARK   68  A    between atoms: _194  and  _197
REMARK   69  A    between atoms: _197  and  _198
REMARK   70  A    between atoms: _201  and  _203
REMARK   71  A    between atoms: _203  and  _204
REMARK   72  A    between atoms: _203  and  _206
REMARK   73  A    between atoms: _206  and  _207
REMARK   74  A    between atoms: _210  and  _212
REMARK   75  A    between atoms: _212  and  _213
REMARK   76  A    between atoms: _212  and  _215
REMARK   77  A    between atoms: _215  and  _216
REMARK   78  A    between atoms: _222  and  _224
REMARK   79  A    between atoms: _224  and  _225
REMARK   80  A    between atoms: _224  and  _227
REMARK   81  A    between atoms: _227  and  _228
REMARK   82  A    between atoms: _233  and  _234
REMARK   83  A    between atoms: _236  and  _238
REMARK   84  A    between atoms: _238  and  _239
REMARK   85  A    between atoms: _238  and  _241
REMARK   86  A    between atoms: _241  and  _242
REMARK   87  A    between atoms: _245  and  _247
REMARK   88  A    between atoms: _247  and  _248
REMARK   89  A    between atoms: _247  and  _250
REMARK   90  A    between atoms: _250  and  _251
REMARK   91  A    between atoms: _261  and  _263
REMARK   92  A    between atoms: _263  and  _264
REMARK   93  A    between atoms: _263  and  _266
REMARK   94  A    between atoms: _266  and  _267
REMARK   95  A    between atoms: _272  and  _274
REMARK   96  A    between atoms: _274  and  _275
REMARK   97  A    between atoms: _274  and  _277
REMARK   98  A    between atoms: _277  and  _278
REMARK   99  A    between atoms: _282  and  ZN_385
REMARK  100  A    between atoms: _283  and  _285
REMARK  101  A    between atoms: _285  and  _286
REMARK  102  A    between atoms: _285  and  _288
REMARK  103  A    between atoms: _288  and  _289
REMARK  104  A    between atoms: _292  and  _294
REMARK  105  A    between atoms: _294  and  _295
REMARK  106  A    between atoms: _297  and  _299
REMARK  107  A    between atoms: _299  and  _300
REMARK  108  A    between atoms: _299  and  _302
REMARK  109  A    between atoms: _302  and  _303
REMARK  110  A    between atoms: _306  and  _308
REMARK  111  A    between atoms: _308  and  _309
REMARK  112  A    between atoms: _308  and  _311
REMARK  113  A    between atoms: _311  and  _312
REMARK  114  A    between atoms: _315  and  _317
REMARK  115  A    between atoms: _317  and  _318
REMARK  116  A    between atoms: _321  and  _323
REMARK  117  A    between atoms: _323  and  _324
REMARK  118  A    between atoms: _323  and  _326
REMARK  119  A    between atoms: _326  and  _327
REMARK  120  A    between atoms: _332  and  _333
REMARK  121  A    between atoms: _335  and  _337
REMARK  122  A    between atoms: _337  and  _338
REMARK  123  A    between atoms: _337  and  _340
REMARK  124  A    between atoms: _340  and  _341
REMARK  125  A    between atoms: _344  and  _346
REMARK  126  A    between atoms: _346  and  _347
REMARK  127  A    between atoms: _346  and  _349
REMARK  128  A    between atoms: _349  and  _350
REMARK  129  A    between atoms: _350  and  _351
REMARK  130  A    between atoms: _354  and  _356
REMARK  131  A    between atoms: _356  and  _357
REMARK  132  A    between atoms: _356  and  _359
REMARK  133  A    between atoms: _359  and  _360
REMARK  134  A    between atoms: _360  and  _361
REMARK  135  A    between atoms: _361  and  _362
REMARK  136  A    between atoms: _371  and  _373
REMARK  137  A    between atoms: _373  and  _374
REMARK  138  A    between atoms: _376  and  _378
REMARK  139  A    between atoms: _378  and  _379
REMARK  140  A    between atoms: _378  and  _381
REMARK  141  A    between atoms: _381  and  _382
REMARK                            x       y       z     vdW  Elec       q    Type
REMARK                         _______ _______ _______ _____ _____    ______ ____
ROOT
ATOM      1  CA  ASP A   1      20.933  60.494   4.231  0.00  0.00    +0.144 C 
ENDROOT
BRANCH   1   2
ATOM      2  N   ASP A   1      21.005  60.863   2.831  0.00  0.00    -0.239 NA
ATOM      3  H   ASP A   1      21.127  61.863   2.573  0.00  0.00    +0.142 HD
ENDBRANCH   1   2
BRANCH   1   4
ATOM      4  C   ASP A   1      19.483  60.510   4.761  0.00  0.00    +0.225 C 
ATOM      5  O   ASP A   1      19.180  59.851   5.777  0.00  0.00    -0.287 OA
ENDBRANCH   1   4
BRANCH   1   6
ATOM      6  CB  ASP A   1      21.846  61.371   5.109  0.00  0.00    +0.139 C 
BRANCH   6   7
ATOM      7  CG  ASP A   1      21.563  62.873   5.011  0.00  0.00    +0.367 C 
ATOM      8  OD2 ASP A   1      22.028  63.563   5.939  0.00  0.00    -0.246 OA
ATOM      9  OD1 ASP A   1      20.913  63.333   4.043  0.00  0.00    -0.246 OA
ENDBRANCH   6   7
ENDBRANCH   1   6
TORSDOF 4
REMARK  Name = ../refined-set-2016/3d51/3d51_pocket.pdb
REMARK  141 active torsions:
REMARK  status: ('A' for Active; 'I' for Inactive)
REMARK    1  A    between atoms: _1  and  _3
REMARK    2  A    between atoms: _14  and  _17
REMARK    3  A    between atoms: _17  and  _18
REMARK    4  A    between atoms: _25  and  _26
REMARK    5  A    between atoms: _33  and  _34
REMARK    6  A    between atoms: _39  and  _41
REMARK    7  A    between atoms: _41  and  _42
REMARK    8  A    between atoms: _44  and  _46
REMARK    9  A    between atoms: _46  and  _47
REMARK   10  A    between atoms: _46  and  _49
REMARK   11  A    between atoms: _49  and  _50
REMARK   12  A    between atoms: _60  and  _62
REMARK   13  A    between atoms: _62  and  _63
REMARK   14  A    between atoms: _62  and  _65
REMARK   15  A    between atoms: _65  and  _66
REMARK   16  A    between atoms: _69  and  _71
REMARK   17  A    between atoms: _71  and  _72
REMARK   18  A    between atoms: _71  and  _74
REMARK   19  A    between atoms: _74  and  _75
REMARK   20  A    between atoms: _80  and  _81
REMARK   21  A    between atoms: _83  and  _85
REMARK   22  A    between atoms: _85  and  _86
REMARK   23  A    between atoms: _85  and  _88
REMARK   24  A    between atoms: _88  and  _89
REMARK   25  A    between atoms: _89  and  _90
REMARK   26  A    between atoms: _93  and  _95
REMARK   27  A    between atoms: _95  and  _96
REMARK   28  A    between atoms: _95  and  _98
REMARK   29  A    between atoms: _98  and  _99
REMARK   30  A    between atoms: _99  and  _100
REMARK   31  A    between atoms: _102  and  _104
REMARK   32  A    between atoms: _104  and  _105
REMARK   33  A    between atoms: _104  and  _107
REMARK   34  A    between atoms: _107  and  _108
REMARK   35  A    between atoms: _111  and  _113
REMARK   36  A    between atoms: _113  and  _114
REMARK   37  A    between atoms: _113  and  _116
REMARK   38  A    between atoms: _116  and  _117
REMARK   39  A    between atoms: _117  and  _119
REMARK   40  A    between atoms: _119  and  ZN_385
REMARK   41  A    between atoms: _121  and  _122
REMARK   42  A    between atoms: _127  and  _129
REMARK   43  A    between atoms: _129  and  _130
REMARK   44  A    between atoms: _129  and  _132
REMARK   45  A    between atoms: _132  and  _133
REMARK   46  A    between atoms: _139  and  _141
REMARK   47  A    between atoms: _141  and  _142
REMARK   48  A    between atoms: _141  and  _144
REMARK   49  A    between atoms: _144  and  _145
REMARK   50  A    between atoms: _145  and  _146
REMARK   51  A    between atoms: _146  and  _147
REMARK   52  A    between atoms: _156  and  _158
REMARK   53  A    between atoms: _158  and  _159
REMARK   54  A    between atoms: _158  and  _161
REMARK   55  A    between atoms: _161  and  _162
REMARK   56  A    between atoms: _167  and  _168
REMARK   57  A    between atoms: _170  and  _172
REMARK   58  A    between atoms: _172  and  _173
REMARK   59  A    between atoms: _172  and  _175
REMARK   60  A    between atoms: _175  and  _176
REMARK   61  A    between atoms: _178  and  _180
REMARK   62  A    between atoms: _180  and  _181
REMARK   63  A    between atoms: _180  and  _183
REMARK   64  A    between atoms: _183  and  _184
REMARK   65  A    between atoms: _189  and  _190
REMARK   66  A    between atoms: _192  and  _194
REMARK   67  A    between atoms: _194  and  _195
REMARK   68  A    between atoms: _194  and  _197
REMARK   69  A    between atoms: _197  and  _198
REMARK   70  A    between atoms: _201  and  _203
REMARK   71  A    between atoms: _203  and  _204
REMARK   72  A    between atoms: _203  and  _206
REMARK   73  A    between atoms: _206  and  _207
REMARK   74  A    between atoms: _210  and  _212
REMARK   75  A    between atoms: _212  and  _213
REMARK   76  A    between atoms: _212  and  _215
REMARK   77  A    between atoms: _215  and  _216
REMARK   78  A    between atoms: _222  and  _224
REMARK   79  A    between atoms: _224  and  _225
REMARK   80  A    between atoms: _224  and  _227
REMARK   81  A    between atoms: _227  and  _228
REMARK   82  A    between atoms: _233  and  _234
REMARK   83  A    between atoms: _236  and  _238
REMARK   84  A    between atoms: _238  and  _239
REMARK   85  A    between atoms: _238  and  _241
REMARK   86  A    between atoms: _241  and  _242
REMARK   87  A    between atoms: _245  and  _247
REMARK   88  A    between atoms: _247  and  _248
REMARK   89  A    between atoms: _247  and  _250
REMARK   90  A    between atoms: _250  and  _251
REMARK   91  A    between atoms: _261  and  _263
REMARK   92  A    between atoms: _263  and  _264
REMARK   93  A    between atoms: _263  and  _266
REMARK   94  A    between atoms: _266  and  _267
REMARK   95  A    between atoms: _272  and  _274
REMARK   96  A    between atoms: _274  and  _275
REMARK   97  A    between atoms: _274  and  _277
REMARK   98  A    between atoms: _277  and  _278
REMARK   99  A    between atoms: _282  and  ZN_385
REMARK  100  A    between atoms: _283  and  _285
REMARK  101  A    between atoms: _285  and  _286
REMARK  102  A    between atoms: _285  and  _288
REMARK  103  A    between atoms: _288  and  _289
REMARK  104  A    between atoms: _292  and  _294
REMARK  105  A    between atoms: _294  and  _295
REMARK  106  A    between atoms: _297  and  _299
REMARK  107  A    between atoms: _299  and  _300
REMARK  108  A    between atoms: _299  and  _302
REMARK  109  A    between atoms: _302  and  _303
REMARK  110  A    between atoms: _306  and  _308
REMARK  111  A    between atoms: _308  and  _309
REMARK  112  A    between atoms: _308  and  _311
REMARK  113  A    between atoms: _311  and  _312
REMARK  114  A    between atoms: _315  and  _317
REMARK  115  A    between atoms: _317  and  _318
REMARK  116  A    between atoms: _321  and  _323
REMARK  117  A    between atoms: _323  and  _324
REMARK  118  A    between atoms: _323  and  _326
REMARK  119  A    between atoms: _326  and  _327
REMARK  120  A    between atoms: _332  and  _333
REMARK  121  A    between atoms: _335  and  _337
REMARK  122  A    between atoms: _337  and  _338
REMARK  123  A    between atoms: _337  and  _340
REMARK  124  A    between atoms: _340  and  _341
REMARK  125  A    between atoms: _344  and  _346
REMARK  126  A    between atoms: _346  and  _347
REMARK  127  A    between atoms: _346  and  _349
REMARK  128  A    between atoms: _349  and  _350
REMARK  129  A    between atoms: _350  and  _351
REMARK  130  A    between atoms: _354  and  _356
REMARK  131  A    between atoms: _356  and  _357
REMARK  132  A    between atoms: _356  and  _359
REMARK  133  A    between atoms: _359  and  _360
REMARK  134  A    between atoms: _360  and  _361
REMARK  135  A    between atoms: _361  and  _362
REMARK  136  A    between atoms: _371  and  _373
REMARK  137  A    between atoms: _373  and  _374
REMARK  138  A    between atoms: _376  and  _378
REMARK  139  A    between atoms: _378  and  _379
REMARK  140  A    between atoms: _378  and  _381
REMARK  141  A    between atoms: _381  and  _382
REMARK                            x       y       z     vdW  Elec       q    Type
REMARK                         _______ _______ _______ _____ _____    ______ ____
ROOT
ATOM      1  CG  TRP A   1      24.712  64.006   0.577  0.00  0.00    -0.002 A 
ATOM      2  CD2 TRP A   1      25.447  64.242   1.767  0.00  0.00    +0.013 A 
ATOM      3  CE2 TRP A   1      24.545  64.153   2.861  0.00  0.00    +0.056 A 
ATOM      4  CZ2 TRP A   1      24.951  64.350   4.188  0.00  0.00    +0.017 A 
ATOM      5  CH2 TRP A   1      26.305  64.617   4.415  0.00  0.00    +0.001 A 
ATOM      6  CZ3 TRP A   1      27.218  64.699   3.340  0.00  0.00    +0.000 A 
ATOM      7  NE1 TRP A   1      23.288  63.879   2.352  0.00  0.00    -0.352 N 
ATOM      8  HE1 TRP A   1      22.420  63.766   2.914  0.00  0.00    +0.166 HD
ATOM      9  CE3 TRP A   1      26.812  64.512   2.027  0.00  0.00    +0.001 A 
ATOM     10  CD1 TRP A   1      23.372  63.781   0.992  0.00  0.00    +0.068 A 
ENDROOT
BRANCH   1  11
ATOM     11  CB  TRP A   1      25.276  63.939  -0.814  0.00  0.00    +0.053 C 
BRANCH  11  12
ATOM     12  CA  TRP A   1      24.425  64.639  -1.864  0.00  0.00    +0.137 C 
BRANCH  12  13
ATOM     13  N   TRP A   1      23.153  63.934  -2.019  0.00  0.00    -0.239 NA
ATOM     14  H   TRP A   1      23.139  62.901  -1.896  0.00  0.00    +0.142 HD
ENDBRANCH  12  13
BRANCH  12  15
ATOM     15  C   TRP A   1      25.138  64.684  -3.198  0.00  0.00    +0.224 C 
ATOM     16  O   TRP A   1      26.263  64.193  -3.355  0.00  0.00    -0.287 OA
ENDBRANCH  12  15
ENDBRANCH  11  12
ENDBRANCH   1  11
TORSDOF 4
REMARK  Name = ../refined-set-2016/3d51/3d51_pocket.pdb
REMARK  141 active torsions:
REMARK  status: ('A' for Active; 'I' for Inactive)
REMARK    1  A    between atoms: _1  and  _3
REMARK    2  A    between atoms: _14  and  _17
REMARK    3  A    between atoms: _17  and  _18
REMARK    4  A    between atoms: _25  and  _26
REMARK    5  A    between atoms: _33  and  _34
REMARK    6  A    between atoms: _39  and  _41
REMARK    7  A    between atoms: _41  and  _42
REMARK    8  A    between atoms: _44  and  _46
REMARK    9  A    between atoms: _46  and  _47
REMARK   10  A    between atoms: _46  and  _49
REMARK   11  A    between atoms: _49  and  _50
REMARK   12  A    between atoms: _60  and  _62
REMARK   13  A    between atoms: _62  and  _63
REMARK   14  A    between atoms: _62  and  _65
REMARK   15  A    between atoms: _65  and  _66
REMARK   16  A    between atoms: _69  and  _71
REMARK   17  A    between atoms: _71  and  _72
REMARK   18  A    between atoms: _71  and  _74
REMARK   19  A    between atoms: _74  and  _75
REMARK   20  A    between atoms: _80  and  _81
REMARK   21  A    between atoms: _83  and  _85
REMARK   22  A    between atoms: _85  and  _86
REMARK   23  A    between atoms: _85  and  _88
REMARK   24  A    between atoms: _88  and  _89
REMARK   25  A    between atoms: _89  and  _90
REMARK   26  A    between atoms: _93  and  _95
REMARK   27  A    between atoms: _95  and  _96
REMARK   28  A    between atoms: _95  and  _98
REMARK   29  A    between atoms: _98  and  _99
REMARK   30  A    between atoms: _99  and  _100
REMARK   31  A    between atoms: _102  and  _104
REMARK   32  A    between atoms: _104  and  _105
REMARK   33  A    between atoms: _104  and  _107
REMARK   34  A    between atoms: _107  and  _108
REMARK   35  A    between atoms: _111  and  _113
REMARK   36  A    between atoms: _113  and  _114
REMARK   37  A    between atoms: _113  and  _116
REMARK   38  A    between atoms: _116  and  _117
REMARK   39  A    between atoms: _117  and  _119
REMARK   40  A    between atoms: _119  and  ZN_385
REMARK   41  A    between atoms: _121  and  _122
REMARK   42  A    between atoms: _127  and  _129
REMARK   43  A    between atoms: _129  and  _130
REMARK   44  A    between atoms: _129  and  _132
REMARK   45  A    between atoms: _132  and  _133
REMARK   46  A    between atoms: _139  and  _141
REMARK   47  A    between atoms: _141  and  _142
REMARK   48  A    between atoms: _141  and  _144
REMARK   49  A    between atoms: _144  and  _145
REMARK   50  A    between atoms: _145  and  _146
REMARK   51  A    between atoms: _146  and  _147
REMARK   52  A    between atoms: _156  and  _158
REMARK   53  A    between atoms: _158  and  _159
REMARK   54  A    between atoms: _158  and  _161
REMARK   55  A    between atoms: _161  and  _162
REMARK   56  A    between atoms: _167  and  _168
REMARK   57  A    between atoms: _170  and  _172
REMARK   58  A    between atoms: _172  and  _173
REMARK   59  A    between atoms: _172  and  _175
REMARK   60  A    between atoms: _175  and  _176
REMARK   61  A    between atoms: _178  and  _180
REMARK   62  A    between atoms: _180  and  _181
REMARK   63  A    between atoms: _180  and  _183
REMARK   64  A    between atoms: _183  and  _184
REMARK   65  A    between atoms: _189  and  _190
REMARK   66  A    between atoms: _192  and  _194
REMARK   67  A    between atoms: _194  and  _195
REMARK   68  A    between atoms: _194  and  _197
REMARK   69  A    between atoms: _197  and  _198
REMARK   70  A    between atoms: _201  and  _203
REMARK   71  A    between atoms: _203  and  _204
REMARK   72  A    between atoms: _203  and  _206
REMARK   73  A    between atoms: _206  and  _207
REMARK   74  A    between atoms: _210  and  _212
REMARK   75  A    between atoms: _212  and  _213
REMARK   76  A    between atoms: _212  and  _215
REMARK   77  A    between atoms: _215  and  _216
REMARK   78  A    between atoms: _222  and  _224
REMARK   79  A    between atoms: _224  and  _225
REMARK   80  A    between atoms: _224  and  _227
REMARK   81  A    between atoms: _227  and  _228
REMARK   82  A    between atoms: _233  and  _234
REMARK   83  A    between atoms: _236  and  _238
REMARK   84  A    between atoms: _238  and  _239
REMARK   85  A    between atoms: _238  and  _241
REMARK   86  A    between atoms: _241  and  _242
REMARK   87  A    between atoms: _245  and  _247
REMARK   88  A    between atoms: _247  and  _248
REMARK   89  A    between atoms: _247  and  _250
REMARK   90  A    between atoms: _250  and  _251
REMARK   91  A    between atoms: _261  and  _263
REMARK   92  A    between atoms: _263  and  _264
REMARK   93  A    between atoms: _263  and  _266
REMARK   94  A    between atoms: _266  and  _267
REMARK   95  A    between atoms: _272  and  _274
REMARK   96  A    between atoms: _274  and  _275
REMARK   97  A    between atoms: _274  and  _277
REMARK   98  A    between atoms: _277  and  _278
REMARK   99  A    between atoms: _282  and  ZN_385
REMARK  100  A    between atoms: _283  and  _285
REMARK  101  A    between atoms: _285  and  _286
REMARK  102  A    between atoms: _285  and  _288
REMARK  103  A    between atoms: _288  and  _289
REMARK  104  A    between atoms: _292  and  _294
REMARK  105  A    between atoms: _294  and  _295
REMARK  106  A    between atoms: _297  and  _299
REMARK  107  A    between atoms: _299  and  _300
REMARK  108  A    between atoms: _299  and  _302
REMARK  109  A    between atoms: _302  and  _303
REMARK  110  A    between atoms: _306  and  _308
REMARK  111  A    between atoms: _308  and  _309
REMARK  112  A    between atoms: _308  and  _311
REMARK  113  A    between atoms: _311  and  _312
REMARK  114  A    between atoms: _315  and  _317
REMARK  115  A    between atoms: _317  and  _318
REMARK  116  A    between atoms: _321  and  _323
REMARK  117  A    between atoms: _323  and  _324
REMARK  118  A    between atoms: _323  and  _326
REMARK  119  A    between atoms: _326  and  _327
REMARK  120  A    between atoms: _332  and  _333
REMARK  121  A    between atoms: _335  and  _337
REMARK  122  A    between atoms: _337  and  _338
REMARK  123  A    between atoms: _337  and  _340
REMARK  124  A    between atoms: _340  and  _341
REMARK  125  A    between atoms: _344  and  _346
REMARK  126  A    between atoms: _346  and  _347
REMARK  127  A    between atoms: _346  and  _349
REMARK  128  A    between atoms: _349  and  _350
REMARK  129  A    between atoms: _350  and  _351
REMARK  130  A    between atoms: _354  and  _356
REMARK  131  A    between atoms: _356  and  _357
REMARK  132  A    between atoms: _356  and  _359
REMARK  133  A    between atoms: _359  and  _360
REMARK  134  A    between atoms: _360  and  _361
REMARK  135  A    between atoms: _361  and  _362
REMARK  136  A    between atoms: _371  and  _373
REMARK  137  A    between atoms: _373  and  _374
REMARK  138  A    between atoms: _376  and  _378
REMARK  139  A    between atoms: _378  and  _379
REMARK  140  A    between atoms: _378  and  _381
REMARK  141  A    between atoms: _381  and  _382
REMARK                            x       y       z     vdW  Elec       q    Type
REMARK                         _______ _______ _______ _____ _____    ______ ____
ROOT
ATOM      1  CA  THR A   1      34.626  67.746  -2.236  0.00  0.00    +0.160 C 
ENDROOT
BRANCH   1   2
ATOM      2  N   THR A   1      36.084  67.683  -2.167  0.00  0.00    -0.237 NA
ATOM      3  H   THR A   1      36.539  67.294  -1.317  0.00  0.00    +0.142 HD
ENDBRANCH   1   2
BRANCH   1   4
ATOM      4  CB  THR A   1      34.040  67.075  -0.989  0.00  0.00    +0.134 C 
ATOM      5  CG2 THR A   1      34.462  65.618  -0.903  0.00  0.00    +0.034 C 
BRANCH   4   6
ATOM      6  OG1 THR A   1      34.560  67.732   0.163  0.00  0.00    -0.383 OA
ATOM      7  HG1 THR A   1      34.190  67.309   0.978  0.00  0.00    +0.210 HD
ENDBRANCH   4   6
ENDBRANCH   1   4
BRANCH   1   8
ATOM      8  C   THR A   1      34.081  69.177  -2.229  0.00  0.00    +0.227 C 
ATOM      9  O   THR A   1      32.906  69.402  -2.551  0.00  0.00    -0.287 OA
ENDBRANCH   1   8
TORSDOF 4
REMARK  Name = ../refined-set-2016/3d51/3d51_pocket.pdb
REMARK  141 active torsions:
REMARK  status: ('A' for Active; 'I' for Inactive)
REMARK    1  A    between atoms: _1  and  _3
REMARK    2  A    between atoms: _14  and  _17
REMARK    3  A    between atoms: _17  and  _18
REMARK    4  A    between atoms: _25  and  _26
REMARK    5  A    between atoms: _33  and  _34
REMARK    6  A    between atoms: _39  and  _41
REMARK    7  A    between atoms: _41  and  _42
REMARK    8  A    between atoms: _44  and  _46
REMARK    9  A    between atoms: _46  and  _47
REMARK   10  A    between atoms: _46  and  _49
REMARK   11  A    between atoms: _49  and  _50
REMARK   12  A    between atoms: _60  and  _62
REMARK   13  A    between atoms: _62  and  _63
REMARK   14  A    between atoms: _62  and  _65
REMARK   15  A    between atoms: _65  and  _66
REMARK   16  A    between atoms: _69  and  _71
REMARK   17  A    between atoms: _71  and  _72
REMARK   18  A    between atoms: _71  and  _74
REMARK   19  A    between atoms: _74  and  _75
REMARK   20  A    between atoms: _80  and  _81
REMARK   21  A    between atoms: _83  and  _85
REMARK   22  A    between atoms: _85  and  _86
REMARK   23  A    between atoms: _85  and  _88
REMARK   24  A    between atoms: _88  and  _89
REMARK   25  A    between atoms: _89  and  _90
REMARK   26  A    between atoms: _93  and  _95
REMARK   27  A    between atoms: _95  and  _96
REMARK   28  A    between atoms: _95  and  _98
REMARK   29  A    between atoms: _98  and  _99
REMARK   30  A    between atoms: _99  and  _100
REMARK   31  A    between atoms: _102  and  _104
REMARK   32  A    between atoms: _104  and  _105
REMARK   33  A    between atoms: _104  and  _107
REMARK   34  A    between atoms: _107  and  _108
REMARK   35  A    between atoms: _111  and  _113
REMARK   36  A    between atoms: _113  and  _114
REMARK   37  A    between atoms: _113  and  _116
REMARK   38  A    between atoms: _116  and  _117
REMARK   39  A    between atoms: _117  and  _119
REMARK   40  A    between atoms: _119  and  ZN_385
REMARK   41  A    between atoms: _121  and  _122
REMARK   42  A    between atoms: _127  and  _129
REMARK   43  A    between atoms: _129  and  _130
REMARK   44  A    between atoms: _129  and  _132
REMARK   45  A    between atoms: _132  and  _133
REMARK   46  A    between atoms: _139  and  _141
REMARK   47  A    between atoms: _141  and  _142
REMARK   48  A    between atoms: _141  and  _144
REMARK   49  A    between atoms: _144  and  _145
REMARK   50  A    between atoms: _145  and  _146
REMARK   51  A    between atoms: _146  and  _147
REMARK   52  A    between atoms: _156  and  _158
REMARK   53  A    between atoms: _158  and  _159
REMARK   54  A    between atoms: _158  and  _161
REMARK   55  A    between atoms: _161  and  _162
REMARK   56  A    between atoms: _167  and  _168
REMARK   57  A    between atoms: _170  and  _172
REMARK   58  A    between atoms: _172  and  _173
REMARK   59  A    between atoms: _172  and  _175
REMARK   60  A    between atoms: _175  and  _176
REMARK   61  A    between atoms: _178  and  _180
REMARK   62  A    between atoms: _180  and  _181
REMARK   63  A    between atoms: _180  and  _183
REMARK   64  A    between atoms: _183  and  _184
REMARK   65  A    between atoms: _189  and  _190
REMARK   66  A    between atoms: _192  and  _194
REMARK   67  A    between atoms: _194  and  _195
REMARK   68  A    between atoms: _194  and  _197
REMARK   69  A    between atoms: _197  and  _198
REMARK   70  A    between atoms: _201  and  _203
REMARK   71  A    between atoms: _203  and  _204
REMARK   72  A    between atoms: _203  and  _206
REMARK   73  A    between atoms: _206  and  _207
REMARK   74  A    between atoms: _210  and  _212
REMARK   75  A    between atoms: _212  and  _213
REMARK   76  A    between atoms: _212  and  _215
REMARK   77  A    between atoms: _215  and  _216
REMARK   78  A    between atoms: _222  and  _224
REMARK   79  A    between atoms: _224  and  _225
REMARK   80  A    between atoms: _224  and  _227
REMARK   81  A    between atoms: _227  and  _228
REMARK   82  A    between atoms: _233  and  _234
REMARK   83  A    between atoms: _236  and  _238
REMARK   84  A    between atoms: _238  and  _239
REMARK   85  A    between atoms: _238  and  _241
REMARK   86  A    between atoms: _241  and  _242
REMARK   87  A    between atoms: _245  and  _247
REMARK   88  A    between atoms: _247  and  _248
REMARK   89  A    between atoms: _247  and  _250
REMARK   90  A    between atoms: _250  and  _251
REMARK   91  A    between atoms: _261  and  _263
REMARK   92  A    between atoms: _263  and  _264
REMARK   93  A    between atoms: _263  and  _266
REMARK   94  A    between atoms: _266  and  _267
REMARK   95  A    between atoms: _272  and  _274
REMARK   96  A    between atoms: _274  and  _275
REMARK   97  A    between atoms: _274  and  _277
REMARK   98  A    between atoms: _277  and  _278
REMARK   99  A    between atoms: _282  and  ZN_385
REMARK  100  A    between atoms: _283  and  _285
REMARK  101  A    between atoms: _285  and  _286
REMARK  102  A    between atoms: _285  and  _288
REMARK  103  A    between atoms: _288  and  _289
REMARK  104  A    between atoms: _292  and  _294
REMARK  105  A    between atoms: _294  and  _295
REMARK  106  A    between atoms: _297  and  _299
REMARK  107  A    between atoms: _299  and  _300
REMARK  108  A    between atoms: _299  and  _302
REMARK  109  A    between atoms: _302  and  _303
REMARK  110  A    between atoms: _306  and  _308
REMARK  111  A    between atoms: _308  and  _309
REMARK  112  A    between atoms: _308  and  _311
REMARK  113  A    between atoms: _311  and  _312
REMARK  114  A    between atoms: _315  and  _317
REMARK  115  A    between atoms: _317  and  _318
REMARK  116  A    between atoms: _321  and  _323
REMARK  117  A    between atoms: _323  and  _324
REMARK  118  A    between atoms: _323  and  _326
REMARK  119  A    between atoms: _326  and  _327
REMARK  120  A    between atoms: _332  and  _333
REMARK  121  A    between atoms: _335  and  _337
REMARK  122  A    between atoms: _337  and  _338
REMARK  123  A    between atoms: _337  and  _340
REMARK  124  A    between atoms: _340  and  _341
REMARK  125  A    between atoms: _344  and  _346
REMARK  126  A    between atoms: _346  and  _347
REMARK  127  A    between atoms: _346  and  _349
REMARK  128  A    between atoms: _349  and  _350
REMARK  129  A    between atoms: _350  and  _351
REMARK  130  A    between atoms: _354  and  _356
REMARK  131  A    between atoms: _356  and  _357
REMARK  132  A    between atoms: _356  and  _359
REMARK  133  A    between atoms: _359  and  _360
REMARK  134  A    between atoms: _360  and  _361
REMARK  135  A    between atoms: _361  and  _362
REMARK  136  A    between atoms: _371  and  _373
REMARK  137  A    between atoms: _373  and  _374
REMARK  138  A    between atoms: _376  and  _378
REMARK  139  A    between atoms: _378  and  _379
REMARK  140  A    between atoms: _378  and  _381
REMARK  141  A    between atoms: _381  and  _382
REMARK                            x       y       z     vdW  Elec       q    Type
REMARK                         _______ _______ _______ _____ _____    ______ ____
ROOT
ATOM      1  C   THR A   1      33.216  71.724   2.860  0.00  0.00    +0.241 C 
ATOM      2  O   THR A   1      32.682  71.578   3.948  0.00  0.00    -0.274 OA
ATOM      3  N   ALA A   2      34.320  72.462   2.708  0.00  0.00    -0.298 N 
ATOM      4  H   ALA A   2      34.727  72.603   1.761  0.00  0.00    +0.150 HD
ENDROOT
BRANCH   3   5
ATOM      5  CA  ALA A   2      34.958  73.075   3.884  0.00  0.00    +0.137 C 
ATOM      6  CB  ALA A   2      36.505  72.906   3.825  0.00  0.00    +0.030 C 
BRANCH   5   7
ATOM      7  C   ALA A   2      34.604  74.567   3.971  0.00  0.00    +0.227 C 
ATOM      8  O   ALA A   2      34.099  75.183   3.031  0.00  0.00    -0.286 OA
ENDBRANCH   5   7
ENDBRANCH   3   5
BRANCH   1   9
ATOM      9  CA  THR A   1      32.583  71.119   1.608  0.00  0.00    +0.172 C 
BRANCH   9  10
ATOM     10  N   THR A   1      33.498  70.982   0.479  0.00  0.00    -0.236 NA
ATOM     11  H   THR A   1      34.256  70.271   0.525  0.00  0.00    +0.142 HD
ENDBRANCH   9  10
BRANCH   9  12
ATOM     12  CB  THR A   1      31.945  69.751   1.937  0.00  0.00    +0.135 C 
ATOM     13  CG2 THR A   1      31.102  69.276   0.778  0.00  0.00    +0.034 C 
BRANCH  12  14
ATOM     14  OG1 THR A   1      32.992  68.795   2.215  0.00  0.00    -0.383 OA
ATOM     15  HG1 THR A   1      33.577  68.708   1.421  0.00  0.00    +0.210 HD
ENDBRANCH  12  14
ENDBRANCH   9  12
ENDBRANCH   1   9
TORSDOF 6
REMARK  Name = ../refined-set-2016/3d51/3d51_pocket.pdb
REMARK  141 active torsions:
REMARK  status: ('A' for Active; 'I' for Inactive)
REMARK    1  A    between atoms: _1  and  _3
REMARK    2  A    between atoms: _14  and  _17
REMARK    3  A    between atoms: _17  and  _18
REMARK    4  A    between atoms: _25  and  _26
REMARK    5  A    between atoms: _33  and  _34
REMARK    6  A    between atoms: _39  and  _41
REMARK    7  A    between atoms: _41  and  _42
REMARK    8  A    between atoms: _44  and  _46
REMARK    9  A    between atoms: _46  and  _47
REMARK   10  A    between atoms: _46  and  _49
REMARK   11  A    between atoms: _49  and  _50
REMARK   12  A    between atoms: _60  and  _62
REMARK   13  A    between atoms: _62  and  _63
REMARK   14  A    between atoms: _62  and  _65
REMARK   15  A    between atoms: _65  and  _66
REMARK   16  A    between atoms: _69  and  _71
REMARK   17  A    between atoms: _71  and  _72
REMARK   18  A    between atoms: _71  and  _74
REMARK   19  A    between atoms: _74  and  _75
REMARK   20  A    between atoms: _80  and  _81
REMARK   21  A    between atoms: _83  and  _85
REMARK   22  A    between atoms: _85  and  _86
REMARK   23  A    between atoms: _85  and  _88
REMARK   24  A    between atoms: _88  and  _89
REMARK   25  A    between atoms: _89  and  _90
REMARK   26  A    between atoms: _93  and  _95
REMARK   27  A    between atoms: _95  and  _96
REMARK   28  A    between atoms: _95  and  _98
REMARK   29  A    between atoms: _98  and  _99
REMARK   30  A    between atoms: _99  and  _100
REMARK   31  A    between atoms: _102  and  _104
REMARK   32  A    between atoms: _104  and  _105
REMARK   33  A    between atoms: _104  and  _107
REMARK   34  A    between atoms: _107  and  _108
REMARK   35  A    between atoms: _111  and  _113
REMARK   36  A    between atoms: _113  and  _114
REMARK   37  A    between atoms: _113  and  _116
REMARK   38  A    between atoms: _116  and  _117
REMARK   39  A    between atoms: _117  and  _119
REMARK   40  A    between atoms: _119  and  ZN_385
REMARK   41  A    between atoms: _121  and  _122
REMARK   42  A    between atoms: _127  and  _129
REMARK   43  A    between atoms: _129  and  _130
REMARK   44  A    between atoms: _129  and  _132
REMARK   45  A    between atoms: _132  and  _133
REMARK   46  A    between atoms: _139  and  _141
REMARK   47  A    between atoms: _141  and  _142
REMARK   48  A    between atoms: _141  and  _144
REMARK   49  A    between atoms: _144  and  _145
REMARK   50  A    between atoms: _145  and  _146
REMARK   51  A    between atoms: _146  and  _147
REMARK   52  A    between atoms: _156  and  _158
REMARK   53  A    between atoms: _158  and  _159
REMARK   54  A    between atoms: _158  and  _161
REMARK   55  A    between atoms: _161  and  _162
REMARK   56  A    between atoms: _167  and  _168
REMARK   57  A    between atoms: _170  and  _172
REMARK   58  A    between atoms: _172  and  _173
REMARK   59  A    between atoms: _172  and  _175
REMARK   60  A    between atoms: _175  and  _176
REMARK   61  A    between atoms: _178  and  _180
REMARK   62  A    between atoms: _180  and  _181
REMARK   63  A    between atoms: _180  and  _183
REMARK   64  A    between atoms: _183  and  _184
REMARK   65  A    between atoms: _189  and  _190
REMARK   66  A    between atoms: _192  and  _194
REMARK   67  A    between atoms: _194  and  _195
REMARK   68  A    between atoms: _194  and  _197
REMARK   69  A    between atoms: _197  and  _198
REMARK   70  A    between atoms: _201  and  _203
REMARK   71  A    between atoms: _203  and  _204
REMARK   72  A    between atoms: _203  and  _206
REMARK   73  A    between atoms: _206  and  _207
REMARK   74  A    between atoms: _210  and  _212
REMARK   75  A    between atoms: _212  and  _213
REMARK   76  A    between atoms: _212  and  _215
REMARK   77  A    between atoms: _215  and  _216
REMARK   78  A    between atoms: _222  and  _224
REMARK   79  A    between atoms: _224  and  _225
REMARK   80  A    between atoms: _224  and  _227
REMARK   81  A    between atoms: _227  and  _228
REMARK   82  A    between atoms: _233  and  _234
REMARK   83  A    between atoms: _236  and  _238
REMARK   84  A    between atoms: _238  and  _239
REMARK   85  A    between atoms: _238  and  _241
REMARK   86  A    between atoms: _241  and  _242
REMARK   87  A    between atoms: _245  and  _247
REMARK   88  A    between atoms: _247  and  _248
REMARK   89  A    between atoms: _247  and  _250
REMARK   90  A    between atoms: _250  and  _251
REMARK   91  A    between atoms: _261  and  _263
REMARK   92  A    between atoms: _263  and  _264
REMARK   93  A    between atoms: _263  and  _266
REMARK   94  A    between atoms: _266  and  _267
REMARK   95  A    between atoms: _272  and  _274
REMARK   96  A    between atoms: _274  and  _275
REMARK   97  A    between atoms: _274  and  _277
REMARK   98  A    between atoms: _277  and  _278
REMARK   99  A    between atoms: _282  and  ZN_385
REMARK  100  A    between atoms: _283  and  _285
REMARK  101  A    between atoms: _285  and  _286
REMARK  102  A    between atoms: _285  and  _288
REMARK  103  A    between atoms: _288  and  _289
REMARK  104  A    between atoms: _292  and  _294
REMARK  105  A    between atoms: _294  and  _295
REMARK  106  A    between atoms: _297  and  _299
REMARK  107  A    between atoms: _299  and  _300
REMARK  108  A    between atoms: _299  and  _302
REMARK  109  A    between atoms: _302  and  _303
REMARK  110  A    between atoms: _306  and  _308
REMARK  111  A    between atoms: _308  and  _309
REMARK  112  A    between atoms: _308  and  _311
REMARK  113  A    between atoms: _311  and  _312
REMARK  114  A    between atoms: _315  and  _317
REMARK  115  A    between atoms: _317  and  _318
REMARK  116  A    between atoms: _321  and  _323
REMARK  117  A    between atoms: _323  and  _324
REMARK  118  A    between atoms: _323  and  _326
REMARK  119  A    between atoms: _326  and  _327
REMARK  120  A    between atoms: _332  and  _333
REMARK  121  A    between atoms: _335  and  _337
REMARK  122  A    between atoms: _337  and  _338
REMARK  123  A    between atoms: _337  and  _340
REMARK  124  A    between atoms: _340  and  _341
REMARK  125  A    between atoms: _344  and  _346
REMARK  126  A    between atoms: _346  and  _347
REMARK  127  A    between atoms: _346  and  _349
REMARK  128  A    between atoms: _349  and  _350
REMARK  129  A    between atoms: _350  and  _351
REMARK  130  A    between atoms: _354  and  _356
REMARK  131  A    between atoms: _356  and  _357
REMARK  132  A    between atoms: _356  and  _359
REMARK  133  A    between atoms: _359  and  _360
REMARK  134  A    between atoms: _360  and  _361
REMARK  135  A    between atoms: _361  and  _362
REMARK  136  A    between atoms: _371  and  _373
REMARK  137  A    between atoms: _373  and  _374
REMARK  138  A    between atoms: _376  and  _378
REMARK  139  A    between atoms: _378  and  _379
REMARK  140  A    between atoms: _378  and  _381
REMARK  141  A    between atoms: _381  and  _382
REMARK                            x       y       z     vdW  Elec       q    Type
REMARK                         _______ _______ _______ _____ _____    ______ ____
ROOT
ATOM      1  CG  TYR A   1      27.389  68.712   2.314  0.00  0.00    -0.020 A 
ATOM      2  CD2 TYR A   1      27.324  69.869   3.079  0.00  0.00    -0.001 A 
ATOM      3  CE2 TYR A   1      28.248  70.120   4.112  0.00  0.00    +0.036 A 
ATOM      4  CZ  TYR A   1      29.258  69.189   4.368  0.00  0.00    +0.134 A 
ATOM      5  CE1 TYR A   1      29.323  68.010   3.618  0.00  0.00    +0.036 A 
ATOM      6  CD1 TYR A   1      28.423  67.782   2.598  0.00  0.00    -0.001 A 
ENDROOT
BRANCH   4   7
ATOM      7  OH  TYR A   1      30.131  69.416   5.368  0.00  0.00    -0.506 OA
ATOM      8  HH  TYR A   1      30.045  68.701   6.048  0.00  0.00    +0.292 HD
ENDBRANCH   4   7
BRANCH   1   9
ATOM      9  CB  TYR A   1      26.349  68.428   1.256  0.00  0.00    +0.051 C 
BRANCH   9  10
ATOM     10  CA  TYR A   1      26.603  69.086  -0.098  0.00  0.00    +0.137 C 
BRANCH  10  11
ATOM     11  N   TYR A   1      26.792  70.525   0.030  0.00  0.00    -0.239 NA
ATOM     12  H   TYR A   1      26.258  71.050   0.751  0.00  0.00    +0.142 HD
ENDBRANCH  10  11
BRANCH  10  13
ATOM     13  C   TYR A   1      25.457  68.729  -0.999  0.00  0.00    +0.224 C 
ATOM     14  O   TYR A   1      25.597  67.886  -1.893  0.00  0.00    -0.287 OA
ENDBRANCH  10  13
ENDBRANCH   9  10
ENDBRANCH   1   9
TORSDOF 5
REMARK  Name = ../refined-set-2016/3d51/3d51_pocket.pdb
REMARK  141 active torsions:
REMARK  status: ('A' for Active; 'I' for Inactive)
REMARK    1  A    between atoms: _1  and  _3
REMARK    2  A    between atoms: _14  and  _17
REMARK    3  A    between atoms: _17  and  _18
REMARK    4  A    between atoms: _25  and  _26
REMARK    5  A    between atoms: _33  and  _34
REMARK    6  A    between atoms: _39  and  _41
REMARK    7  A    between atoms: _41  and  _42
REMARK    8  A    between atoms: _44  and  _46
REMARK    9  A    between atoms: _46  and  _47
REMARK   10  A    between atoms: _46  and  _49
REMARK   11  A    between atoms: _49  and  _50
REMARK   12  A    between atoms: _60  and  _62
REMARK   13  A    between atoms: _62  and  _63
REMARK   14  A    between atoms: _62  and  _65
REMARK   15  A    between atoms: _65  and  _66
REMARK   16  A    between atoms: _69  and  _71
REMARK   17  A    between atoms: _71  and  _72
REMARK   18  A    between atoms: _71  and  _74
REMARK   19  A    between atoms: _74  and  _75
REMARK   20  A    between atoms: _80  and  _81
REMARK   21  A    between atoms: _83  and  _85
REMARK   22  A    between atoms: _85  and  _86
REMARK   23  A    between atoms: _85  and  _88
REMARK   24  A    between atoms: _88  and  _89
REMARK   25  A    between atoms: _89  and  _90
REMARK   26  A    between atoms: _93  and  _95
REMARK   27  A    between atoms: _95  and  _96
REMARK   28  A    between atoms: _95  and  _98
REMARK   29  A    between atoms: _98  and  _99
REMARK   30  A    between atoms: _99  and  _100
REMARK   31  A    between atoms: _102  and  _104
REMARK   32  A    between atoms: _104  and  _105
REMARK   33  A    between atoms: _104  and  _107
REMARK   34  A    between atoms: _107  and  _108
REMARK   35  A    between atoms: _111  and  _113
REMARK   36  A    between atoms: _113  and  _114
REMARK   37  A    between atoms: _113  and  _116
REMARK   38  A    between atoms: _116  and  _117
REMARK   39  A    between atoms: _117  and  _119
REMARK   40  A    between atoms: _119  and  ZN_385
REMARK   41  A    between atoms: _121  and  _122
REMARK   42  A    between atoms: _127  and  _129
REMARK   43  A    between atoms: _129  and  _130
REMARK   44  A    between atoms: _129  and  _132
REMARK   45  A    between atoms: _132  and  _133
REMARK   46  A    between atoms: _139  and  _141
REMARK   47  A    between atoms: _141  and  _142
REMARK   48  A    between atoms: _141  and  _144
REMARK   49  A    between atoms: _144  and  _145
REMARK   50  A    between atoms: _145  and  _146
REMARK   51  A    between atoms: _146  and  _147
REMARK   52  A    between atoms: _156  and  _158
REMARK   53  A    between atoms: _158  and  _159
REMARK   54  A    between atoms: _158  and  _161
REMARK   55  A    between atoms: _161  and  _162
REMARK   56  A    between atoms: _167  and  _168
REMARK   57  A    between atoms: _170  and  _172
REMARK   58  A    between atoms: _172  and  _173
REMARK   59  A    between atoms: _172  and  _175
REMARK   60  A    between atoms: _175  and  _176
REMARK   61  A    between atoms: _178  and  _180
REMARK   62  A    between atoms: _180  and  _181
REMARK   63  A    between atoms: _180  and  _183
REMARK   64  A    between atoms: _183  and  _184
REMARK   65  A    between atoms: _189  and  _190
REMARK   66  A    between atoms: _192  and  _194
REMARK   67  A    between atoms: _194  and  _195
REMARK   68  A    between atoms: _194  and  _197
REMARK   69  A    between atoms: _197  and  _198
REMARK   70  A    between atoms: _201  and  _203
REMARK   71  A    between atoms: _203  and  _204
REMARK   72  A    between atoms: _203  and  _206
REMARK   73  A    between atoms: _206  and  _207
REMARK   74  A    between atoms: _210  and  _212
REMARK   75  A    between atoms: _212  and  _213
REMARK   76  A    between atoms: _212  and  _215
REMARK   77  A    between atoms: _215  and  _216
REMARK   78  A    between atoms: _222  and  _224
REMARK   79  A    between atoms: _224  and  _225
REMARK   80  A    between atoms: _224  and  _227
REMARK   81  A    between atoms: _227  and  _228
REMARK   82  A    between atoms: _233  and  _234
REMARK   83  A    between atoms: _236  and  _238
REMARK   84  A    between atoms: _238  and  _239
REMARK   85  A    between atoms: _238  and  _241
REMARK   86  A    between atoms: _241  and  _242
REMARK   87  A    between atoms: _245  and  _247
REMARK   88  A    between atoms: _247  and  _248
REMARK   89  A    between atoms: _247  and  _250
REMARK   90  A    between atoms: _250  and  _251
REMARK   91  A    between atoms: _261  and  _263
REMARK   92  A    between atoms: _263  and  _264
REMARK   93  A    between atoms: _263  and  _266
REMARK   94  A    between atoms: _266  and  _267
REMARK   95  A    between atoms: _272  and  _274
REMARK   96  A    between atoms: _274  and  _275
REMARK   97  A    between atoms: _274  and  _277
REMARK   98  A    between atoms: _277  and  _278
REMARK   99  A    between atoms: _282  and  ZN_385
REMARK  100  A    between atoms: _283  and  _285
REMARK  101  A    between atoms: _285  and  _286
REMARK  102  A    between atoms: _285  and  _288
REMARK  103  A    between atoms: _288  and  _289
REMARK  104  A    between atoms: _292  and  _294
REMARK  105  A    between atoms: _294  and  _295
REMARK  106  A    between atoms: _297  and  _299
REMARK  107  A    between atoms: _299  and  _300
REMARK  108  A    between atoms: _299  and  _302
REMARK  109  A    between atoms: _302  and  _303
REMARK  110  A    between atoms: _306  and  _308
REMARK  111  A    between atoms: _308  and  _309
REMARK  112  A    between atoms: _308  and  _311
REMARK  113  A    between atoms: _311  and  _312
REMARK  114  A    between atoms: _315  and  _317
REMARK  115  A    between atoms: _317  and  _318
REMARK  116  A    between atoms: _321  and  _323
REMARK  117  A    between atoms: _323  and  _324
REMARK  118  A    between atoms: _323  and  _326
REMARK  119  A    between atoms: _326  and  _327
REMARK  120  A    between atoms: _332  and  _333
REMARK  121  A    between atoms: _335  and  _337
REMARK  122  A    between atoms: _337  and  _338
REMARK  123  A    between atoms: _337  and  _340
REMARK  124  A    between atoms: _340  and  _341
REMARK  125  A    between atoms: _344  and  _346
REMARK  126  A    between atoms: _346  and  _347
REMARK  127  A    between atoms: _346  and  _349
REMARK  128  A    between atoms: _349  and  _350
REMARK  129  A    between atoms: _350  and  _351
REMARK  130  A    between atoms: _354  and  _356
REMARK  131  A    between atoms: _356  and  _357
REMARK  132  A    between atoms: _356  and  _359
REMARK  133  A    between atoms: _359  and  _360
REMARK  134  A    between atoms: _360  and  _361
REMARK  135  A    between atoms: _361  and  _362
REMARK  136  A    between atoms: _371  and  _373
REMARK  137  A    between atoms: _373  and  _374
REMARK  138  A    between atoms: _376  and  _378
REMARK  139  A    between atoms: _378  and  _379
REMARK  140  A    between atoms: _378  and  _381
REMARK  141  A    between atoms: _381  and  _382
REMARK                            x       y       z     vdW  Elec       q    Type
REMARK                         _______ _______ _______ _____ _____    ______ ____
ROOT
ATOM      1  CA  ARG A   3      25.071  69.334   7.243  0.00  0.00    +0.149 C 
ENDROOT
BRANCH   1   4
ATOM      2  C   GLU A   2      22.943  70.463   7.632  0.00  0.00    +0.241 C 
ATOM      3  O   GLU A   2      22.483  69.498   8.261  0.00  0.00    -0.273 OA
ATOM      4  N   ARG A   3      24.156  70.468   7.069  0.00  0.00    -0.297 N 
ATOM      5  H   ARG A   3      24.455  71.286   6.501  0.00  0.00    +0.150 HD
BRANCH   2   6
ATOM      6  CA  GLU A   2      22.129  71.727   7.460  0.00  0.00    +0.149 C 
BRANCH   6   8
ATOM      7  C   ASP A   1      22.164  71.958   5.013  0.00  0.00    +0.239 C 
ATOM      8  N   GLU A   2      22.410  72.463   6.216  0.00  0.00    -0.297 N 
ATOM      9  H   GLU A   2      22.818  73.417   6.282  0.00  0.00    +0.150 HD
ATOM     10  O   ASP A   1      21.911  70.754   4.838  0.00  0.00    -0.274 OA
BRANCH   7  11
ATOM     11  CA  ASP A   1      22.227  72.924   3.817  0.00  0.00    +0.156 C 
BRANCH  11  12
ATOM     12  N   ASP A   1      23.076  74.105   4.077  0.00  0.00    -0.238 NA
ATOM     13  H   ASP A   1      24.108  73.987   4.121  0.00  0.00    +0.142 HD
ENDBRANCH  11  12
BRANCH  11  14
ATOM     14  CB  ASP A   1      22.629  72.213   2.515  0.00  0.00    +0.140 C 
BRANCH  14  15
ATOM     15  CG  ASP A   1      24.089  71.866   2.455  0.00  0.00    +0.367 C 
ATOM     16  OD2 ASP A   1      24.868  72.213   3.361  0.00  0.00    -0.246 OA
ATOM     17  OD1 ASP A   1      24.468  71.272   1.429  0.00  0.00    -0.246 OA
ENDBRANCH  14  15
ENDBRANCH  11  14
ENDBRANCH   7  11
ENDBRANCH   6   8
BRANCH   6  18
ATOM     18  CB  GLU A   2      20.640  71.334   7.530  0.00  0.00    +0.041 C 
BRANCH  18  19
ATOM     19  CG  GLU A   2      19.671  72.452   7.290  0.00  0.00    +0.116 C 
BRANCH  19  20
ATOM     20  CD  GLU A   2      18.220  71.976   7.232  0.00  0.00    +0.365 C 
ATOM     21  OE2 GLU A   2      17.367  72.761   7.682  0.00  0.00    -0.246 OA
ATOM     22  OE1 GLU A   2      17.914  70.854   6.742  0.00  0.00    -0.246 OA
ENDBRANCH  19  20
ENDBRANCH  18  19
ENDBRANCH   6  18
ENDBRANCH   2   6
ENDBRANCH   1   4
BRANCH   1  23
ATOM     23  C   ARG A   3      26.301  69.730   8.052  0.00  0.00    +0.241 C 
ATOM     24  N   GLY A   4      26.251  70.867   8.737  0.00  0.00    -0.295 N 
ATOM     25  H   GLY A   4      25.458  71.521   8.578  0.00  0.00    +0.150 HD
ATOM     26  O   ARG A   3      27.256  68.979   8.087  0.00  0.00    -0.273 OA
BRANCH  24  27
ATOM     27  CA  GLY A   4      27.281  71.220   9.707  0.00  0.00    +0.176 C 
BRANCH  27  28
ATOM     28  C   GLY A   4      28.273  72.273   9.237  0.00  0.00    +0.243 C 
ATOM     29  O   GLY A   4      29.067  72.791  10.050  0.00  0.00    -0.273 OA
ATOM     30  N   LEU A   5      28.243  72.594   7.944  0.00  0.00    -0.298 N 
ATOM     31  H   LEU A   5      27.530  72.169   7.317  0.00  0.00    +0.150 HD
BRANCH  30  32
ATOM     32  CA  LEU A   5      29.223  73.553   7.406  0.00  0.00    +0.137 C 
BRANCH  32  33
ATOM     33  C   LEU A   5      28.967  74.967   7.909  0.00  0.00    +0.227 C 
ATOM     34  O   LEU A   5      29.915  75.702   8.183  0.00  0.00    -0.286 OA
ENDBRANCH  32  33
BRANCH  32  35
ATOM     35  CB  LEU A   5      29.197  73.535   5.883  0.00  0.00    +0.028 C 
BRANCH  35  36
ATOM     36  CG  LEU A   5      30.123  74.499   5.139  0.00  0.00    +0.002 C 
ATOM     37  CD2 LEU A   5      31.607  74.371   5.583  0.00  0.00    +0.000 C 
ATOM     38  CD1 LEU A   5      29.992  74.334   3.642  0.00  0.00    +0.000 C 
ENDBRANCH  35  36
ENDBRANCH  32  35
ENDBRANCH  30  32
ENDBRANCH  27  28
ENDBRANCH  24  27
ENDBRANCH   1  23
BRANCH   1  39
ATOM     39  CB  ARG A   3      25.435  68.708   5.877  0.00  0.00    +0.033 C 
BRANCH  39  40
ATOM     40  CG  ARG A   3      24.194  68.128   5.092  0.00  0.00    +0.045 C 
BRANCH  40  41
ATOM     41  CD  ARG A   3      23.413  67.151   5.979  0.00  0.00    +0.174 C 
BRANCH  41  42
ATOM     42  NE  ARG A   3      22.356  66.404   5.304  0.00  0.00    -0.265 N 
ATOM     43  CZ  ARG A   3      21.137  66.887   5.072  0.00  0.00    +0.342 C 
ATOM     44  NH2 ARG A   3      20.867  68.179   5.322  0.00  0.00    -0.292 N 
ATOM     45 HH21 ARG A   3      21.610  68.802   5.697  0.00  0.00    +0.255 HD
ATOM     46 HH22 ARG A   3      19.915  68.556   5.141  0.00  0.00    +0.255 HD
ATOM     47  NH1 ARG A   3      20.206  66.085   4.552  0.00  0.00    -0.292 N 
ATOM     48 HH11 ARG A   3      19.250  66.450   4.366  0.00  0.00    +0.255 HD
ATOM     49 HH12 ARG A   3      20.436  65.095   4.333  0.00  0.00    +0.255 HD
ATOM     50  HE  ARG A   3      22.568  65.437   4.985  0.00  0.00    +0.259 HD
ENDBRANCH  41  42
ENDBRANCH  40  41
ENDBRANCH  39  40
ENDBRANCH   1  39
TORSDOF 21
REMARK  Name = ../refined-set-2016/3d51/3d51_pocket.pdb
REMARK  141 active torsions:
REMARK  status: ('A' for Active; 'I' for Inactive)
REMARK    1  A    between atoms: _1  and  _3
REMARK    2  A    between atoms: _14  and  _17
REMARK    3  A    between atoms: _17  and  _18
REMARK    4  A    between atoms: _25  and  _26
REMARK    5  A    between atoms: _33  and  _34
REMARK    6  A    between atoms: _39  and  _41
REMARK    7  A    between atoms: _41  and  _42
REMARK    8  A    between atoms: _44  and  _46
REMARK    9  A    between atoms: _46  and  _47
REMARK   10  A    between atoms: _46  and  _49
REMARK   11  A    between atoms: _49  and  _50
REMARK   12  A    between atoms: _60  and  _62
REMARK   13  A    between atoms: _62  and  _63
REMARK   14  A    between atoms: _62  and  _65
REMARK   15  A    between atoms: _65  and  _66
REMARK   16  A    between atoms: _69  and  _71
REMARK   17  A    between atoms: _71  and  _72
REMARK   18  A    between atoms: _71  and  _74
REMARK   19  A    between atoms: _74  and  _75
REMARK   20  A    between atoms: _80  and  _81
REMARK   21  A    between atoms: _83  and  _85
REMARK   22  A    between atoms: _85  and  _86
REMARK   23  A    between atoms: _85  and  _88
REMARK   24  A    between atoms: _88  and  _89
REMARK   25  A    between atoms: _89  and  _90
REMARK   26  A    between atoms: _93  and  _95
REMARK   27  A    between atoms: _95  and  _96
REMARK   28  A    between atoms: _95  and  _98
REMARK   29  A    between atoms: _98  and  _99
REMARK   30  A    between atoms: _99  and  _100
REMARK   31  A    between atoms: _102  and  _104
REMARK   32  A    between atoms: _104  and  _105
REMARK   33  A    between atoms: _104  and  _107
REMARK   34  A    between atoms: _107  and  _108
REMARK   35  A    between atoms: _111  and  _113
REMARK   36  A    between atoms: _113  and  _114
REMARK   37  A    between atoms: _113  and  _116
REMARK   38  A    between atoms: _116  and  _117
REMARK   39  A    between atoms: _117  and  _119
REMARK   40  A    between atoms: _119  and  ZN_385
REMARK   41  A    between atoms: _121  and  _122
REMARK   42  A    between atoms: _127  and  _129
REMARK   43  A    between atoms: _129  and  _130
REMARK   44  A    between atoms: _129  and  _132
REMARK   45  A    between atoms: _132  and  _133
REMARK   46  A    between atoms: _139  and  _141
REMARK   47  A    between atoms: _141  and  _142
REMARK   48  A    between atoms: _141  and  _144
REMARK   49  A    between atoms: _144  and  _145
REMARK   50  A    between atoms: _145  and  _146
REMARK   51  A    between atoms: _146  and  _147
REMARK   52  A    between atoms: _156  and  _158
REMARK   53  A    between atoms: _158  and  _159
REMARK   54  A    between atoms: _158  and  _161
REMARK   55  A    between atoms: _161  and  _162
REMARK   56  A    between atoms: _167  and  _168
REMARK   57  A    between atoms: _170  and  _172
REMARK   58  A    between atoms: _172  and  _173
REMARK   59  A    between atoms: _172  and  _175
REMARK   60  A    between atoms: _175  and  _176
REMARK   61  A    between atoms: _178  and  _180
REMARK   62  A    between atoms: _180  and  _181
REMARK   63  A    between atoms: _180  and  _183
REMARK   64  A    between atoms: _183  and  _184
REMARK   65  A    between atoms: _189  and  _190
REMARK   66  A    between atoms: _192  and  _194
REMARK   67  A    between atoms: _194  and  _195
REMARK   68  A    between atoms: _194  and  _197
REMARK   69  A    between atoms: _197  and  _198
REMARK   70  A    between atoms: _201  and  _203
REMARK   71  A    between atoms: _203  and  _204
REMARK   72  A    between atoms: _203  and  _206
REMARK   73  A    between atoms: _206  and  _207
REMARK   74  A    between atoms: _210  and  _212
REMARK   75  A    between atoms: _212  and  _213
REMARK   76  A    between atoms: _212  and  _215
REMARK   77  A    between atoms: _215  and  _216
REMARK   78  A    between atoms: _222  and  _224
REMARK   79  A    between atoms: _224  and  _225
REMARK   80  A    between atoms: _224  and  _227
REMARK   81  A    between atoms: _227  and  _228
REMARK   82  A    between atoms: _233  and  _234
REMARK   83  A    between atoms: _236  and  _238
REMARK   84  A    between atoms: _238  and  _239
REMARK   85  A    between atoms: _238  and  _241
REMARK   86  A    between atoms: _241  and  _242
REMARK   87  A    between atoms: _245  and  _247
REMARK   88  A    between atoms: _247  and  _248
REMARK   89  A    between atoms: _247  and  _250
REMARK   90  A    between atoms: _250  and  _251
REMARK   91  A    between atoms: _261  and  _263
REMARK   92  A    between atoms: _263  and  _264
REMARK   93  A    between atoms: _263  and  _266
REMARK   94  A    between atoms: _266  and  _267
REMARK   95  A    between atoms: _272  and  _274
REMARK   96  A    between atoms: _274  and  _275
REMARK   97  A    between atoms: _274  and  _277
REMARK   98  A    between atoms: _277  and  _278
REMARK   99  A    between atoms: _282  and  ZN_385
REMARK  100  A    between atoms: _283  and  _285
REMARK  101  A    between atoms: _285  and  _286
REMARK  102  A    between atoms: _285  and  _288
REMARK  103  A    between atoms: _288  and  _289
REMARK  104  A    between atoms: _292  and  _294
REMARK  105  A    between atoms: _294  and  _295
REMARK  106  A    between atoms: _297  and  _299
REMARK  107  A    between atoms: _299  and  _300
REMARK  108  A    between atoms: _299  and  _302
REMARK  109  A    between atoms: _302  and  _303
REMARK  110  A    between atoms: _306  and  _308
REMARK  111  A    between atoms: _308  and  _309
REMARK  112  A    between atoms: _308  and  _311
REMARK  113  A    between atoms: _311  and  _312
REMARK  114  A    between atoms: _315  and  _317
REMARK  115  A    between atoms: _317  and  _318
REMARK  116  A    between atoms: _321  and  _323
REMARK  117  A    between atoms: _323  and  _324
REMARK  118  A    between atoms: _323  and  _326
REMARK  119  A    between atoms: _326  and  _327
REMARK  120  A    between atoms: _332  and  _333
REMARK  121  A    between atoms: _335  and  _337
REMARK  122  A    between atoms: _337  and  _338
REMARK  123  A    between atoms: _337  and  _340
REMARK  124  A    between atoms: _340  and  _341
REMARK  125  A    between atoms: _344  and  _346
REMARK  126  A    between atoms: _346  and  _347
REMARK  127  A    between atoms: _346  and  _349
REMARK  128  A    between atoms: _349  and  _350
REMARK  129  A    between atoms: _350  and  _351
REMARK  130  A    between atoms: _354  and  _356
REMARK  131  A    between atoms: _356  and  _357
REMARK  132  A    between atoms: _356  and  _359
REMARK  133  A    between atoms: _359  and  _360
REMARK  134  A    between atoms: _360  and  _361
REMARK  135  A    between atoms: _361  and  _362
REMARK  136  A    between atoms: _371  and  _373
REMARK  137  A    between atoms: _373  and  _374
REMARK  138  A    between atoms: _376  and  _378
REMARK  139  A    between atoms: _378  and  _379
REMARK  140  A    between atoms: _378  and  _381
REMARK  141  A    between atoms: _381  and  _382
REMARK                            x       y       z     vdW  Elec       q    Type
REMARK                         _______ _______ _______ _____ _____    ______ ____
ROOT
ATOM      1  O   HOH     1      33.120  62.377   0.270  0.00  0.00    +0.000 OA
ENDROOT
TORSDOF 0
REMARK  Name = ../refined-set-2016/3d51/3d51_pocket.pdb
REMARK  141 active torsions:
REMARK  status: ('A' for Active; 'I' for Inactive)
REMARK    1  A    between atoms: _1  and  _3
REMARK    2  A    between atoms: _14  and  _17
REMARK    3  A    between atoms: _17  and  _18
REMARK    4  A    between atoms: _25  and  _26
REMARK    5  A    between atoms: _33  and  _34
REMARK    6  A    between atoms: _39  and  _41
REMARK    7  A    between atoms: _41  and  _42
REMARK    8  A    between atoms: _44  and  _46
REMARK    9  A    between atoms: _46  and  _47
REMARK   10  A    between atoms: _46  and  _49
REMARK   11  A    between atoms: _49  and  _50
REMARK   12  A    between atoms: _60  and  _62
REMARK   13  A    between atoms: _62  and  _63
REMARK   14  A    between atoms: _62  and  _65
REMARK   15  A    between atoms: _65  and  _66
REMARK   16  A    between atoms: _69  and  _71
REMARK   17  A    between atoms: _71  and  _72
REMARK   18  A    between atoms: _71  and  _74
REMARK   19  A    between atoms: _74  and  _75
REMARK   20  A    between atoms: _80  and  _81
REMARK   21  A    between atoms: _83  and  _85
REMARK   22  A    between atoms: _85  and  _86
REMARK   23  A    between atoms: _85  and  _88
REMARK   24  A    between atoms: _88  and  _89
REMARK   25  A    between atoms: _89  and  _90
REMARK   26  A    between atoms: _93  and  _95
REMARK   27  A    between atoms: _95  and  _96
REMARK   28  A    between atoms: _95  and  _98
REMARK   29  A    between atoms: _98  and  _99
REMARK   30  A    between atoms: _99  and  _100
REMARK   31  A    between atoms: _102  and  _104
REMARK   32  A    between atoms: _104  and  _105
REMARK   33  A    between atoms: _104  and  _107
REMARK   34  A    between atoms: _107  and  _108
REMARK   35  A    between atoms: _111  and  _113
REMARK   36  A    between atoms: _113  and  _114
REMARK   37  A    between atoms: _113  and  _116
REMARK   38  A    between atoms: _116  and  _117
REMARK   39  A    between atoms: _117  and  _119
REMARK   40  A    between atoms: _119  and  ZN_385
REMARK   41  A    between atoms: _121  and  _122
REMARK   42  A    between atoms: _127  and  _129
REMARK   43  A    between atoms: _129  and  _130
REMARK   44  A    between atoms: _129  and  _132
REMARK   45  A    between atoms: _132  and  _133
REMARK   46  A    between atoms: _139  and  _141
REMARK   47  A    between atoms: _141  and  _142
REMARK   48  A    between atoms: _141  and  _144
REMARK   49  A    between atoms: _144  and  _145
REMARK   50  A    between atoms: _145  and  _146
REMARK   51  A    between atoms: _146  and  _147
REMARK   52  A    between atoms: _156  and  _158
REMARK   53  A    between atoms: _158  and  _159
REMARK   54  A    between atoms: _158  and  _161
REMARK   55  A    between atoms: _161  and  _162
REMARK   56  A    between atoms: _167  and  _168
REMARK   57  A    between atoms: _170  and  _172
REMARK   58  A    between atoms: _172  and  _173
REMARK   59  A    between atoms: _172  and  _175
REMARK   60  A    between atoms: _175  and  _176
REMARK   61  A    between atoms: _178  and  _180
REMARK   62  A    between atoms: _180  and  _181
REMARK   63  A    between atoms: _180  and  _183
REMARK   64  A    between atoms: _183  and  _184
REMARK   65  A    between atoms: _189  and  _190
REMARK   66  A    between atoms: _192  and  _194
REMARK   67  A    between atoms: _194  and  _195
REMARK   68  A    between atoms: _194  and  _197
REMARK   69  A    between atoms: _197  and  _198
REMARK   70  A    between atoms: _201  and  _203
REMARK   71  A    between atoms: _203  and  _204
REMARK   72  A    between atoms: _203  and  _206
REMARK   73  A    between atoms: _206  and  _207
REMARK   74  A    between atoms: _210  and  _212
REMARK   75  A    between atoms: _212  and  _213
REMARK   76  A    between atoms: _212  and  _215
REMARK   77  A    between atoms: _215  and  _216
REMARK   78  A    between atoms: _222  and  _224
REMARK   79  A    between atoms: _224  and  _225
REMARK   80  A    between atoms: _224  and  _227
REMARK   81  A    between atoms: _227  and  _228
REMARK   82  A    between atoms: _233  and  _234
REMARK   83  A    between atoms: _236  and  _238
REMARK   84  A    between atoms: _238  and  _239
REMARK   85  A    between atoms: _238  and  _241
REMARK   86  A    between atoms: _241  and  _242
REMARK   87  A    between atoms: _245  and  _247
REMARK   88  A    between atoms: _247  and  _248
REMARK   89  A    between atoms: _247  and  _250
REMARK   90  A    between atoms: _250  and  _251
REMARK   91  A    between atoms: _261  and  _263
REMARK   92  A    between atoms: _263  and  _264
REMARK   93  A    between atoms: _263  and  _266
REMARK   94  A    between atoms: _266  and  _267
REMARK   95  A    between atoms: _272  and  _274
REMARK   96  A    between atoms: _274  and  _275
REMARK   97  A    between atoms: _274  and  _277
REMARK   98  A    between atoms: _277  and  _278
REMARK   99  A    between atoms: _282  and  ZN_385
REMARK  100  A    between atoms: _283  and  _285
REMARK  101  A    between atoms: _285  and  _286
REMARK  102  A    between atoms: _285  and  _288
REMARK  103  A    between atoms: _288  and  _289
REMARK  104  A    between atoms: _292  and  _294
REMARK  105  A    between atoms: _294  and  _295
REMARK  106  A    between atoms: _297  and  _299
REMARK  107  A    between atoms: _299  and  _300
REMARK  108  A    between atoms: _299  and  _302
REMARK  109  A    between atoms: _302  and  _303
REMARK  110  A    between atoms: _306  and  _308
REMARK  111  A    between atoms: _308  and  _309
REMARK  112  A    between atoms: _308  and  _311
REMARK  113  A    between atoms: _311  and  _312
REMARK  114  A    between atoms: _315  and  _317
REMARK  115  A    between atoms: _317  and  _318
REMARK  116  A    between atoms: _321  and  _323
REMARK  117  A    between atoms: _323  and  _324
REMARK  118  A    between atoms: _323  and  _326
REMARK  119  A    between atoms: _326  and  _327
REMARK  120  A    between atoms: _332  and  _333
REMARK  121  A    between atoms: _335  and  _337
REMARK  122  A    between atoms: _337  and  _338
REMARK  123  A    between atoms: _337  and  _340
REMARK  124  A    between atoms: _340  and  _341
REMARK  125  A    between atoms: _344  and  _346
REMARK  126  A    between atoms: _346  and  _347
REMARK  127  A    between atoms: _346  and  _349
REMARK  128  A    between atoms: _349  and  _350
REMARK  129  A    between atoms: _350  and  _351
REMARK  130  A    between atoms: _354  and  _356
REMARK  131  A    between atoms: _356  and  _357
REMARK  132  A    between atoms: _356  and  _359
REMARK  133  A    between atoms: _359  and  _360
REMARK  134  A    between atoms: _360  and  _361
REMARK  135  A    between atoms: _361  and  _362
REMARK  136  A    between atoms: _371  and  _373
REMARK  137  A    between atoms: _373  and  _374
REMARK  138  A    between atoms: _376  and  _378
REMARK  139  A    between atoms: _378  and  _379
REMARK  140  A    between atoms: _378  and  _381
REMARK  141  A    between atoms: _381  and  _382
REMARK                            x       y       z     vdW  Elec       q    Type
REMARK                         _______ _______ _______ _____ _____    ______ ____
ROOT
ATOM      1  O   HOH     1      27.266  58.779   8.551  0.00  0.00    +0.000 OA
ENDROOT
TORSDOF 0
REMARK  Name = ../refined-set-2016/3d51/3d51_pocket.pdb
REMARK  141 active torsions:
REMARK  status: ('A' for Active; 'I' for Inactive)
REMARK    1  A    between atoms: _1  and  _3
REMARK    2  A    between atoms: _14  and  _17
REMARK    3  A    between atoms: _17  and  _18
REMARK    4  A    between atoms: _25  and  _26
REMARK    5  A    between atoms: _33  and  _34
REMARK    6  A    between atoms: _39  and  _41
REMARK    7  A    between atoms: _41  and  _42
REMARK    8  A    between atoms: _44  and  _46
REMARK    9  A    between atoms: _46  and  _47
REMARK   10  A    between atoms: _46  and  _49
REMARK   11  A    between atoms: _49  and  _50
REMARK   12  A    between atoms: _60  and  _62
REMARK   13  A    between atoms: _62  and  _63
REMARK   14  A    between atoms: _62  and  _65
REMARK   15  A    between atoms: _65  and  _66
REMARK   16  A    between atoms: _69  and  _71
REMARK   17  A    between atoms: _71  and  _72
REMARK   18  A    between atoms: _71  and  _74
REMARK   19  A    between atoms: _74  and  _75
REMARK   20  A    between atoms: _80  and  _81
REMARK   21  A    between atoms: _83  and  _85
REMARK   22  A    between atoms: _85  and  _86
REMARK   23  A    between atoms: _85  and  _88
REMARK   24  A    between atoms: _88  and  _89
REMARK   25  A    between atoms: _89  and  _90
REMARK   26  A    between atoms: _93  and  _95
REMARK   27  A    between atoms: _95  and  _96
REMARK   28  A    between atoms: _95  and  _98
REMARK   29  A    between atoms: _98  and  _99
REMARK   30  A    between atoms: _99  and  _100
REMARK   31  A    between atoms: _102  and  _104
REMARK   32  A    between atoms: _104  and  _105
REMARK   33  A    between atoms: _104  and  _107
REMARK   34  A    between atoms: _107  and  _108
REMARK   35  A    between atoms: _111  and  _113
REMARK   36  A    between atoms: _113  and  _114
REMARK   37  A    between atoms: _113  and  _116
REMARK   38  A    between atoms: _116  and  _117
REMARK   39  A    between atoms: _117  and  _119
REMARK   40  A    between atoms: _119  and  ZN_385
REMARK   41  A    between atoms: _121  and  _122
REMARK   42  A    between atoms: _127  and  _129
REMARK   43  A    between atoms: _129  and  _130
REMARK   44  A    between atoms: _129  and  _132
REMARK   45  A    between atoms: _132  and  _133
REMARK   46  A    between atoms: _139  and  _141
REMARK   47  A    between atoms: _141  and  _142
REMARK   48  A    between atoms: _141  and  _144
REMARK   49  A    between atoms: _144  and  _145
REMARK   50  A    between atoms: _145  and  _146
REMARK   51  A    between atoms: _146  and  _147
REMARK   52  A    between atoms: _156  and  _158
REMARK   53  A    between atoms: _158  and  _159
REMARK   54  A    between atoms: _158  and  _161
REMARK   55  A    between atoms: _161  and  _162
REMARK   56  A    between atoms: _167  and  _168
REMARK   57  A    between atoms: _170  and  _172
REMARK   58  A    between atoms: _172  and  _173
REMARK   59  A    between atoms: _172  and  _175
REMARK   60  A    between atoms: _175  and  _176
REMARK   61  A    between atoms: _178  and  _180
REMARK   62  A    between atoms: _180  and  _181
REMARK   63  A    between atoms: _180  and  _183
REMARK   64  A    between atoms: _183  and  _184
REMARK   65  A    between atoms: _189  and  _190
REMARK   66  A    between atoms: _192  and  _194
REMARK   67  A    between atoms: _194  and  _195
REMARK   68  A    between atoms: _194  and  _197
REMARK   69  A    between atoms: _197  and  _198
REMARK   70  A    between atoms: _201  and  _203
REMARK   71  A    between atoms: _203  and  _204
REMARK   72  A    between atoms: _203  and  _206
REMARK   73  A    between atoms: _206  and  _207
REMARK   74  A    between atoms: _210  and  _212
REMARK   75  A    between atoms: _212  and  _213
REMARK   76  A    between atoms: _212  and  _215
REMARK   77  A    between atoms: _215  and  _216
REMARK   78  A    between atoms: _222  and  _224
REMARK   79  A    between atoms: _224  and  _225
REMARK   80  A    between atoms: _224  and  _227
REMARK   81  A    between atoms: _227  and  _228
REMARK   82  A    between atoms: _233  and  _234
REMARK   83  A    between atoms: _236  and  _238
REMARK   84  A    between atoms: _238  and  _239
REMARK   85  A    between atoms: _238  and  _241
REMARK   86  A    between atoms: _241  and  _242
REMARK   87  A    between atoms: _245  and  _247
REMARK   88  A    between atoms: _247  and  _248
REMARK   89  A    between atoms: _247  and  _250
REMARK   90  A    between atoms: _250  and  _251
REMARK   91  A    between atoms: _261  and  _263
REMARK   92  A    between atoms: _263  and  _264
REMARK   93  A    between atoms: _263  and  _266
REMARK   94  A    between atoms: _266  and  _267
REMARK   95  A    between atoms: _272  and  _274
REMARK   96  A    between atoms: _274  and  _275
REMARK   97  A    between atoms: _274  and  _277
REMARK   98  A    between atoms: _277  and  _278
REMARK   99  A    between atoms: _282  and  ZN_385
REMARK  100  A    between atoms: _283  and  _285
REMARK  101  A    between atoms: _285  and  _286
REMARK  102  A    between atoms: _285  and  _288
REMARK  103  A    between atoms: _288  and  _289
REMARK  104  A    between atoms: _292  and  _294
REMARK  105  A    between atoms: _294  and  _295
REMARK  106  A    between atoms: _297  and  _299
REMARK  107  A    between atoms: _299  and  _300
REMARK  108  A    between atoms: _299  and  _302
REMARK  109  A    between atoms: _302  and  _303
REMARK  110  A    between atoms: _306  and  _308
REMARK  111  A    between atoms: _308  and  _309
REMARK  112  A    between atoms: _308  and  _311
REMARK  113  A    between atoms: _311  and  _312
REMARK  114  A    between atoms: _315  and  _317
REMARK  115  A    between atoms: _317  and  _318
REMARK  116  A    between atoms: _321  and  _323
REMARK  117  A    between atoms: _323  and  _324
REMARK  118  A    between atoms: _323  and  _326
REMARK  119  A    between atoms: _326  and  _327
REMARK  120  A    between atoms: _332  and  _333
REMARK  121  A    between atoms: _335  and  _337
REMARK  122  A    between atoms: _337  and  _338
REMARK  123  A    between atoms: _337  and  _340
REMARK  124  A    between atoms: _340  and  _341
REMARK  125  A    between atoms: _344  and  _346
REMARK  126  A    between atoms: _346  and  _347
REMARK  127  A    between atoms: _346  and  _349
REMARK  128  A    between atoms: _349  and  _350
REMARK  129  A    between atoms: _350  and  _351
REMARK  130  A    between atoms: _354  and  _356
REMARK  131  A    between atoms: _356  and  _357
REMARK  132  A    between atoms: _356  and  _359
REMARK  133  A    between atoms: _359  and  _360
REMARK  134  A    between atoms: _360  and  _361
REMARK  135  A    between atoms: _361  and  _362
REMARK  136  A    between atoms: _371  and  _373
REMARK  137  A    between atoms: _373  and  _374
REMARK  138  A    between atoms: _376  and  _378
REMARK  139  A    between atoms: _378  and  _379
REMARK  140  A    between atoms: _378  and  _381
REMARK  141  A    between atoms: _381  and  _382
REMARK                            x       y       z     vdW  Elec       q    Type
REMARK                         _______ _______ _______ _____ _____    ______ ____
ROOT
ATOM      1  O   HOH     1      27.102  60.767  10.455  0.00  0.00    +0.000 OA
ENDROOT
TORSDOF 0
REMARK  Name = ../refined-set-2016/3d51/3d51_pocket.pdb
REMARK  141 active torsions:
REMARK  status: ('A' for Active; 'I' for Inactive)
REMARK    1  A    between atoms: _1  and  _3
REMARK    2  A    between atoms: _14  and  _17
REMARK    3  A    between atoms: _17  and  _18
REMARK    4  A    between atoms: _25  and  _26
REMARK    5  A    between atoms: _33  and  _34
REMARK    6  A    between atoms: _39  and  _41
REMARK    7  A    between atoms: _41  and  _42
REMARK    8  A    between atoms: _44  and  _46
REMARK    9  A    between atoms: _46  and  _47
REMARK   10  A    between atoms: _46  and  _49
REMARK   11  A    between atoms: _49  and  _50
REMARK   12  A    between atoms: _60  and  _62
REMARK   13  A    between atoms: _62  and  _63
REMARK   14  A    between atoms: _62  and  _65
REMARK   15  A    between atoms: _65  and  _66
REMARK   16  A    between atoms: _69  and  _71
REMARK   17  A    between atoms: _71  and  _72
REMARK   18  A    between atoms: _71  and  _74
REMARK   19  A    between atoms: _74  and  _75
REMARK   20  A    between atoms: _80  and  _81
REMARK   21  A    between atoms: _83  and  _85
REMARK   22  A    between atoms: _85  and  _86
REMARK   23  A    between atoms: _85  and  _88
REMARK   24  A    between atoms: _88  and  _89
REMARK   25  A    between atoms: _89  and  _90
REMARK   26  A    between atoms: _93  and  _95
REMARK   27  A    between atoms: _95  and  _96
REMARK   28  A    between atoms: _95  and  _98
REMARK   29  A    between atoms: _98  and  _99
REMARK   30  A    between atoms: _99  and  _100
REMARK   31  A    between atoms: _102  and  _104
REMARK   32  A    between atoms: _104  and  _105
REMARK   33  A    between atoms: _104  and  _107
REMARK   34  A    between atoms: _107  and  _108
REMARK   35  A    between atoms: _111  and  _113
REMARK   36  A    between atoms: _113  and  _114
REMARK   37  A    between atoms: _113  and  _116
REMARK   38  A    between atoms: _116  and  _117
REMARK   39  A    between atoms: _117  and  _119
REMARK   40  A    between atoms: _119  and  ZN_385
REMARK   41  A    between atoms: _121  and  _122
REMARK   42  A    between atoms: _127  and  _129
REMARK   43  A    between atoms: _129  and  _130
REMARK   44  A    between atoms: _129  and  _132
REMARK   45  A    between atoms: _132  and  _133
REMARK   46  A    between atoms: _139  and  _141
REMARK   47  A    between atoms: _141  and  _142
REMARK   48  A    between atoms: _141  and  _144
REMARK   49  A    between atoms: _144  and  _145
REMARK   50  A    between atoms: _145  and  _146
REMARK   51  A    between atoms: _146  and  _147
REMARK   52  A    between atoms: _156  and  _158
REMARK   53  A    between atoms: _158  and  _159
REMARK   54  A    between atoms: _158  and  _161
REMARK   55  A    between atoms: _161  and  _162
REMARK   56  A    between atoms: _167  and  _168
REMARK   57  A    between atoms: _170  and  _172
REMARK   58  A    between atoms: _172  and  _173
REMARK   59  A    between atoms: _172  and  _175
REMARK   60  A    between atoms: _175  and  _176
REMARK   61  A    between atoms: _178  and  _180
REMARK   62  A    between atoms: _180  and  _181
REMARK   63  A    between atoms: _180  and  _183
REMARK   64  A    between atoms: _183  and  _184
REMARK   65  A    between atoms: _189  and  _190
REMARK   66  A    between atoms: _192  and  _194
REMARK   67  A    between atoms: _194  and  _195
REMARK   68  A    between atoms: _194  and  _197
REMARK   69  A    between atoms: _197  and  _198
REMARK   70  A    between atoms: _201  and  _203
REMARK   71  A    between atoms: _203  and  _204
REMARK   72  A    between atoms: _203  and  _206
REMARK   73  A    between atoms: _206  and  _207
REMARK   74  A    between atoms: _210  and  _212
REMARK   75  A    between atoms: _212  and  _213
REMARK   76  A    between atoms: _212  and  _215
REMARK   77  A    between atoms: _215  and  _216
REMARK   78  A    between atoms: _222  and  _224
REMARK   79  A    between atoms: _224  and  _225
REMARK   80  A    between atoms: _224  and  _227
REMARK   81  A    between atoms: _227  and  _228
REMARK   82  A    between atoms: _233  and  _234
REMARK   83  A    between atoms: _236  and  _238
REMARK   84  A    between atoms: _238  and  _239
REMARK   85  A    between atoms: _238  and  _241
REMARK   86  A    between atoms: _241  and  _242
REMARK   87  A    between atoms: _245  and  _247
REMARK   88  A    between atoms: _247  and  _248
REMARK   89  A    between atoms: _247  and  _250
REMARK   90  A    between atoms: _250  and  _251
REMARK   91  A    between atoms: _261  and  _263
REMARK   92  A    between atoms: _263  and  _264
REMARK   93  A    between atoms: _263  and  _266
REMARK   94  A    between atoms: _266  and  _267
REMARK   95  A    between atoms: _272  and  _274
REMARK   96  A    between atoms: _274  and  _275
REMARK   97  A    between atoms: _274  and  _277
REMARK   98  A    between atoms: _277  and  _278
REMARK   99  A    between atoms: _282  and  ZN_385
REMARK  100  A    between atoms: _283  and  _285
REMARK  101  A    between atoms: _285  and  _286
REMARK  102  A    between atoms: _285  and  _288
REMARK  103  A    between atoms: _288  and  _289
REMARK  104  A    between atoms: _292  and  _294
REMARK  105  A    between atoms: _294  and  _295
REMARK  106  A    between atoms: _297  and  _299
REMARK  107  A    between atoms: _299  and  _300
REMARK  108  A    between atoms: _299  and  _302
REMARK  109  A    between atoms: _302  and  _303
REMARK  110  A    between atoms: _306  and  _308
REMARK  111  A    between atoms: _308  and  _309
REMARK  112  A    between atoms: _308  and  _311
REMARK  113  A    between atoms: _311  and  _312
REMARK  114  A    between atoms: _315  and  _317
REMARK  115  A    between atoms: _317  and  _318
REMARK  116  A    between atoms: _321  and  _323
REMARK  117  A    between atoms: _323  and  _324
REMARK  118  A    between atoms: _323  and  _326
REMARK  119  A    between atoms: _326  and  _327
REMARK  120  A    between atoms: _332  and  _333
REMARK  121  A    between atoms: _335  and  _337
REMARK  122  A    between atoms: _337  and  _338
REMARK  123  A    between atoms: _337  and  _340
REMARK  124  A    between atoms: _340  and  _341
REMARK  125  A    between atoms: _344  and  _346
REMARK  126  A    between atoms: _346  and  _347
REMARK  127  A    between atoms: _346  and  _349
REMARK  128  A    between atoms: _349  and  _350
REMARK  129  A    between atoms: _350  and  _351
REMARK  130  A    between atoms: _354  and  _356
REMARK  131  A    between atoms: _356  and  _357
REMARK  132  A    between atoms: _356  and  _359
REMARK  133  A    between atoms: _359  and  _360
REMARK  134  A    between atoms: _360  and  _361
REMARK  135  A    between atoms: _361  and  _362
REMARK  136  A    between atoms: _371  and  _373
REMARK  137  A    between atoms: _373  and  _374
REMARK  138  A    between atoms: _376  and  _378
REMARK  139  A    between atoms: _378  and  _379
REMARK  140  A    between atoms: _378  and  _381
REMARK  141  A    between atoms: _381  and  _382
REMARK                            x       y       z     vdW  Elec       q    Type
REMARK                         _______ _______ _______ _____ _____    ______ ____
ROOT
ATOM      1  O   HOH     1      28.540  63.079  10.639  0.00  0.00    +0.000 OA
ENDROOT
TORSDOF 0
REMARK  Name = ../refined-set-2016/3d51/3d51_pocket.pdb
REMARK  141 active torsions:
REMARK  status: ('A' for Active; 'I' for Inactive)
REMARK    1  A    between atoms: _1  and  _3
REMARK    2  A    between atoms: _14  and  _17
REMARK    3  A    between atoms: _17  and  _18
REMARK    4  A    between atoms: _25  and  _26
REMARK    5  A    between atoms: _33  and  _34
REMARK    6  A    between atoms: _39  and  _41
REMARK    7  A    between atoms: _41  and  _42
REMARK    8  A    between atoms: _44  and  _46
REMARK    9  A    between atoms: _46  and  _47
REMARK   10  A    between atoms: _46  and  _49
REMARK   11  A    between atoms: _49  and  _50
REMARK   12  A    between atoms: _60  and  _62
REMARK   13  A    between atoms: _62  and  _63
REMARK   14  A    between atoms: _62  and  _65
REMARK   15  A    between atoms: _65  and  _66
REMARK   16  A    between atoms: _69  and  _71
REMARK   17  A    between atoms: _71  and  _72
REMARK   18  A    between atoms: _71  and  _74
REMARK   19  A    between atoms: _74  and  _75
REMARK   20  A    between atoms: _80  and  _81
REMARK   21  A    between atoms: _83  and  _85
REMARK   22  A    between atoms: _85  and  _86
REMARK   23  A    between atoms: _85  and  _88
REMARK   24  A    between atoms: _88  and  _89
REMARK   25  A    between atoms: _89  and  _90
REMARK   26  A    between atoms: _93  and  _95
REMARK   27  A    between atoms: _95  and  _96
REMARK   28  A    between atoms: _95  and  _98
REMARK   29  A    between atoms: _98  and  _99
REMARK   30  A    between atoms: _99  and  _100
REMARK   31  A    between atoms: _102  and  _104
REMARK   32  A    between atoms: _104  and  _105
REMARK   33  A    between atoms: _104  and  _107
REMARK   34  A    between atoms: _107  and  _108
REMARK   35  A    between atoms: _111  and  _113
REMARK   36  A    between atoms: _113  and  _114
REMARK   37  A    between atoms: _113  and  _116
REMARK   38  A    between atoms: _116  and  _117
REMARK   39  A    between atoms: _117  and  _119
REMARK   40  A    between atoms: _119  and  ZN_385
REMARK   41  A    between atoms: _121  and  _122
REMARK   42  A    between atoms: _127  and  _129
REMARK   43  A    between atoms: _129  and  _130
REMARK   44  A    between atoms: _129  and  _132
REMARK   45  A    between atoms: _132  and  _133
REMARK   46  A    between atoms: _139  and  _141
REMARK   47  A    between atoms: _141  and  _142
REMARK   48  A    between atoms: _141  and  _144
REMARK   49  A    between atoms: _144  and  _145
REMARK   50  A    between atoms: _145  and  _146
REMARK   51  A    between atoms: _146  and  _147
REMARK   52  A    between atoms: _156  and  _158
REMARK   53  A    between atoms: _158  and  _159
REMARK   54  A    between atoms: _158  and  _161
REMARK   55  A    between atoms: _161  and  _162
REMARK   56  A    between atoms: _167  and  _168
REMARK   57  A    between atoms: _170  and  _172
REMARK   58  A    between atoms: _172  and  _173
REMARK   59  A    between atoms: _172  and  _175
REMARK   60  A    between atoms: _175  and  _176
REMARK   61  A    between atoms: _178  and  _180
REMARK   62  A    between atoms: _180  and  _181
REMARK   63  A    between atoms: _180  and  _183
REMARK   64  A    between atoms: _183  and  _184
REMARK   65  A    between atoms: _189  and  _190
REMARK   66  A    between atoms: _192  and  _194
REMARK   67  A    between atoms: _194  and  _195
REMARK   68  A    between atoms: _194  and  _197
REMARK   69  A    between atoms: _197  and  _198
REMARK   70  A    between atoms: _201  and  _203
REMARK   71  A    between atoms: _203  and  _204
REMARK   72  A    between atoms: _203  and  _206
REMARK   73  A    between atoms: _206  and  _207
REMARK   74  A    between atoms: _210  and  _212
REMARK   75  A    between atoms: _212  and  _213
REMARK   76  A    between atoms: _212  and  _215
REMARK   77  A    between atoms: _215  and  _216
REMARK   78  A    between atoms: _222  and  _224
REMARK   79  A    between atoms: _224  and  _225
REMARK   80  A    between atoms: _224  and  _227
REMARK   81  A    between atoms: _227  and  _228
REMARK   82  A    between atoms: _233  and  _234
REMARK   83  A    between atoms: _236  and  _238
REMARK   84  A    between atoms: _238  and  _239
REMARK   85  A    between atoms: _238  and  _241
REMARK   86  A    between atoms: _241  and  _242
REMARK   87  A    between atoms: _245  and  _247
REMARK   88  A    between atoms: _247  and  _248
REMARK   89  A    between atoms: _247  and  _250
REMARK   90  A    between atoms: _250  and  _251
REMARK   91  A    between atoms: _261  and  _263
REMARK   92  A    between atoms: _263  and  _264
REMARK   93  A    between atoms: _263  and  _266
REMARK   94  A    between atoms: _266  and  _267
REMARK   95  A    between atoms: _272  and  _274
REMARK   96  A    between atoms: _274  and  _275
REMARK   97  A    between atoms: _274  and  _277
REMARK   98  A    between atoms: _277  and  _278
REMARK   99  A    between atoms: _282  and  ZN_385
REMARK  100  A    between atoms: _283  and  _285
REMARK  101  A    between atoms: _285  and  _286
REMARK  102  A    between atoms: _285  and  _288
REMARK  103  A    between atoms: _288  and  _289
REMARK  104  A    between atoms: _292  and  _294
REMARK  105  A    between atoms: _294  and  _295
REMARK  106  A    between atoms: _297  and  _299
REMARK  107  A    between atoms: _299  and  _300
REMARK  108  A    between atoms: _299  and  _302
REMARK  109  A    between atoms: _302  and  _303
REMARK  110  A    between atoms: _306  and  _308
REMARK  111  A    between atoms: _308  and  _309
REMARK  112  A    between atoms: _308  and  _311
REMARK  113  A    between atoms: _311  and  _312
REMARK  114  A    between atoms: _315  and  _317
REMARK  115  A    between atoms: _317  and  _318
REMARK  116  A    between atoms: _321  and  _323
REMARK  117  A    between atoms: _323  and  _324
REMARK  118  A    between atoms: _323  and  _326
REMARK  119  A    between atoms: _326  and  _327
REMARK  120  A    between atoms: _332  and  _333
REMARK  121  A    between atoms: _335  and  _337
REMARK  122  A    between atoms: _337  and  _338
REMARK  123  A    between atoms: _337  and  _340
REMARK  124  A    between atoms: _340  and  _341
REMARK  125  A    between atoms: _344  and  _346
REMARK  126  A    between atoms: _346  and  _347
REMARK  127  A    between atoms: _346  and  _349
REMARK  128  A    between atoms: _349  and  _350
REMARK  129  A    between atoms: _350  and  _351
REMARK  130  A    between atoms: _354  and  _356
REMARK  131  A    between atoms: _356  and  _357
REMARK  132  A    between atoms: _356  and  _359
REMARK  133  A    between atoms: _359  and  _360
REMARK  134  A    between atoms: _360  and  _361
REMARK  135  A    between atoms: _361  and  _362
REMARK  136  A    between atoms: _371  and  _373
REMARK  137  A    between atoms: _373  and  _374
REMARK  138  A    between atoms: _376  and  _378
REMARK  139  A    between atoms: _378  and  _379
REMARK  140  A    between atoms: _378  and  _381
REMARK  141  A    between atoms: _381  and  _382
REMARK                            x       y       z     vdW  Elec       q    Type
REMARK                         _______ _______ _______ _____ _____    ______ ____
ROOT
ATOM      1  O   HOH     1      26.161  64.435   8.616  0.00  0.00    +0.000 OA
ENDROOT
TORSDOF 0
REMARK  Name = ../refined-set-2016/3d51/3d51_pocket.pdb
REMARK  141 active torsions:
REMARK  status: ('A' for Active; 'I' for Inactive)
REMARK    1  A    between atoms: _1  and  _3
REMARK    2  A    between atoms: _14  and  _17
REMARK    3  A    between atoms: _17  and  _18
REMARK    4  A    between atoms: _25  and  _26
REMARK    5  A    between atoms: _33  and  _34
REMARK    6  A    between atoms: _39  and  _41
REMARK    7  A    between atoms: _41  and  _42
REMARK    8  A    between atoms: _44  and  _46
REMARK    9  A    between atoms: _46  and  _47
REMARK   10  A    between atoms: _46  and  _49
REMARK   11  A    between atoms: _49  and  _50
REMARK   12  A    between atoms: _60  and  _62
REMARK   13  A    between atoms: _62  and  _63
REMARK   14  A    between atoms: _62  and  _65
REMARK   15  A    between atoms: _65  and  _66
REMARK   16  A    between atoms: _69  and  _71
REMARK   17  A    between atoms: _71  and  _72
REMARK   18  A    between atoms: _71  and  _74
REMARK   19  A    between atoms: _74  and  _75
REMARK   20  A    between atoms: _80  and  _81
REMARK   21  A    between atoms: _83  and  _85
REMARK   22  A    between atoms: _85  and  _86
REMARK   23  A    between atoms: _85  and  _88
REMARK   24  A    between atoms: _88  and  _89
REMARK   25  A    between atoms: _89  and  _90
REMARK   26  A    between atoms: _93  and  _95
REMARK   27  A    between atoms: _95  and  _96
REMARK   28  A    between atoms: _95  and  _98
REMARK   29  A    between atoms: _98  and  _99
REMARK   30  A    between atoms: _99  and  _100
REMARK   31  A    between atoms: _102  and  _104
REMARK   32  A    between atoms: _104  and  _105
REMARK   33  A    between atoms: _104  and  _107
REMARK   34  A    between atoms: _107  and  _108
REMARK   35  A    between atoms: _111  and  _113
REMARK   36  A    between atoms: _113  and  _114
REMARK   37  A    between atoms: _113  and  _116
REMARK   38  A    between atoms: _116  and  _117
REMARK   39  A    between atoms: _117  and  _119
REMARK   40  A    between atoms: _119  and  ZN_385
REMARK   41  A    between atoms: _121  and  _122
REMARK   42  A    between atoms: _127  and  _129
REMARK   43  A    between atoms: _129  and  _130
REMARK   44  A    between atoms: _129  and  _132
REMARK   45  A    between atoms: _132  and  _133
REMARK   46  A    between atoms: _139  and  _141
REMARK   47  A    between atoms: _141  and  _142
REMARK   48  A    between atoms: _141  and  _144
REMARK   49  A    between atoms: _144  and  _145
REMARK   50  A    between atoms: _145  and  _146
REMARK   51  A    between atoms: _146  and  _147
REMARK   52  A    between atoms: _156  and  _158
REMARK   53  A    between atoms: _158  and  _159
REMARK   54  A    between atoms: _158  and  _161
REMARK   55  A    between atoms: _161  and  _162
REMARK   56  A    between atoms: _167  and  _168
REMARK   57  A    between atoms: _170  and  _172
REMARK   58  A    between atoms: _172  and  _173
REMARK   59  A    between atoms: _172  and  _175
REMARK   60  A    between atoms: _175  and  _176
REMARK   61  A    between atoms: _178  and  _180
REMARK   62  A    between atoms: _180  and  _181
REMARK   63  A    between atoms: _180  and  _183
REMARK   64  A    between atoms: _183  and  _184
REMARK   65  A    between atoms: _189  and  _190
REMARK   66  A    between atoms: _192  and  _194
REMARK   67  A    between atoms: _194  and  _195
REMARK   68  A    between atoms: _194  and  _197
REMARK   69  A    between atoms: _197  and  _198
REMARK   70  A    between atoms: _201  and  _203
REMARK   71  A    between atoms: _203  and  _204
REMARK   72  A    between atoms: _203  and  _206
REMARK   73  A    between atoms: _206  and  _207
REMARK   74  A    between atoms: _210  and  _212
REMARK   75  A    between atoms: _212  and  _213
REMARK   76  A    between atoms: _212  and  _215
REMARK   77  A    between atoms: _215  and  _216
REMARK   78  A    between atoms: _222  and  _224
REMARK   79  A    between atoms: _224  and  _225
REMARK   80  A    between atoms: _224  and  _227
REMARK   81  A    between atoms: _227  and  _228
REMARK   82  A    between atoms: _233  and  _234
REMARK   83  A    between atoms: _236  and  _238
REMARK   84  A    between atoms: _238  and  _239
REMARK   85  A    between atoms: _238  and  _241
REMARK   86  A    between atoms: _241  and  _242
REMARK   87  A    between atoms: _245  and  _247
REMARK   88  A    between atoms: _247  and  _248
REMARK   89  A    between atoms: _247  and  _250
REMARK   90  A    between atoms: _250  and  _251
REMARK   91  A    between atoms: _261  and  _263
REMARK   92  A    between atoms: _263  and  _264
REMARK   93  A    between atoms: _263  and  _266
REMARK   94  A    between atoms: _266  and  _267
REMARK   95  A    between atoms: _272  and  _274
REMARK   96  A    between atoms: _274  and  _275
REMARK   97  A    between atoms: _274  and  _277
REMARK   98  A    between atoms: _277  and  _278
REMARK   99  A    between atoms: _282  and  ZN_385
REMARK  100  A    between atoms: _283  and  _285
REMARK  101  A    between atoms: _285  and  _286
REMARK  102  A    between atoms: _285  and  _288
REMARK  103  A    between atoms: _288  and  _289
REMARK  104  A    between atoms: _292  and  _294
REMARK  105  A    between atoms: _294  and  _295
REMARK  106  A    between atoms: _297  and  _299
REMARK  107  A    between atoms: _299  and  _300
REMARK  108  A    between atoms: _299  and  _302
REMARK  109  A    between atoms: _302  and  _303
REMARK  110  A    between atoms: _306  and  _308
REMARK  111  A    between atoms: _308  and  _309
REMARK  112  A    between atoms: _308  and  _311
REMARK  113  A    between atoms: _311  and  _312
REMARK  114  A    between atoms: _315  and  _317
REMARK  115  A    between atoms: _317  and  _318
REMARK  116  A    between atoms: _321  and  _323
REMARK  117  A    between atoms: _323  and  _324
REMARK  118  A    between atoms: _323  and  _326
REMARK  119  A    between atoms: _326  and  _327
REMARK  120  A    between atoms: _332  and  _333
REMARK  121  A    between atoms: _335  and  _337
REMARK  122  A    between atoms: _337  and  _338
REMARK  123  A    between atoms: _337  and  _340
REMARK  124  A    between atoms: _340  and  _341
REMARK  125  A    between atoms: _344  and  _346
REMARK  126  A    between atoms: _346  and  _347
REMARK  127  A    between atoms: _346  and  _349
REMARK  128  A    between atoms: _349  and  _350
REMARK  129  A    between atoms: _350  and  _351
REMARK  130  A    between atoms: _354  and  _356
REMARK  131  A    between atoms: _356  and  _357
REMARK  132  A    between atoms: _356  and  _359
REMARK  133  A    between atoms: _359  and  _360
REMARK  134  A    between atoms: _360  and  _361
REMARK  135  A    between atoms: _361  and  _362
REMARK  136  A    between atoms: _371  and  _373
REMARK  137  A    between atoms: _373  and  _374
REMARK  138  A    between atoms: _376  and  _378
REMARK  139  A    between atoms: _378  and  _379
REMARK  140  A    between atoms: _378  and  _381
REMARK  141  A    between atoms: _381  and  _382
REMARK                            x       y       z     vdW  Elec       q    Type
REMARK                         _______ _______ _______ _____ _____    ______ ____
ROOT
ATOM      1  O   HOH     1      24.136  62.942   7.584  0.00  0.00    +0.000 OA
ENDROOT
TORSDOF 0
REMARK  Name = ../refined-set-2016/3d51/3d51_pocket.pdb
REMARK  141 active torsions:
REMARK  status: ('A' for Active; 'I' for Inactive)
REMARK    1  A    between atoms: _1  and  _3
REMARK    2  A    between atoms: _14  and  _17
REMARK    3  A    between atoms: _17  and  _18
REMARK    4  A    between atoms: _25  and  _26
REMARK    5  A    between atoms: _33  and  _34
REMARK    6  A    between atoms: _39  and  _41
REMARK    7  A    between atoms: _41  and  _42
REMARK    8  A    between atoms: _44  and  _46
REMARK    9  A    between atoms: _46  and  _47
REMARK   10  A    between atoms: _46  and  _49
REMARK   11  A    between atoms: _49  and  _50
REMARK   12  A    between atoms: _60  and  _62
REMARK   13  A    between atoms: _62  and  _63
REMARK   14  A    between atoms: _62  and  _65
REMARK   15  A    between atoms: _65  and  _66
REMARK   16  A    between atoms: _69  and  _71
REMARK   17  A    between atoms: _71  and  _72
REMARK   18  A    between atoms: _71  and  _74
REMARK   19  A    between atoms: _74  and  _75
REMARK   20  A    between atoms: _80  and  _81
REMARK   21  A    between atoms: _83  and  _85
REMARK   22  A    between atoms: _85  and  _86
REMARK   23  A    between atoms: _85  and  _88
REMARK   24  A    between atoms: _88  and  _89
REMARK   25  A    between atoms: _89  and  _90
REMARK   26  A    between atoms: _93  and  _95
REMARK   27  A    between atoms: _95  and  _96
REMARK   28  A    between atoms: _95  and  _98
REMARK   29  A    between atoms: _98  and  _99
REMARK   30  A    between atoms: _99  and  _100
REMARK   31  A    between atoms: _102  and  _104
REMARK   32  A    between atoms: _104  and  _105
REMARK   33  A    between atoms: _104  and  _107
REMARK   34  A    between atoms: _107  and  _108
REMARK   35  A    between atoms: _111  and  _113
REMARK   36  A    between atoms: _113  and  _114
REMARK   37  A    between atoms: _113  and  _116
REMARK   38  A    between atoms: _116  and  _117
REMARK   39  A    between atoms: _117  and  _119
REMARK   40  A    between atoms: _119  and  ZN_385
REMARK   41  A    between atoms: _121  and  _122
REMARK   42  A    between atoms: _127  and  _129
REMARK   43  A    between atoms: _129  and  _130
REMARK   44  A    between atoms: _129  and  _132
REMARK   45  A    between atoms: _132  and  _133
REMARK   46  A    between atoms: _139  and  _141
REMARK   47  A    between atoms: _141  and  _142
REMARK   48  A    between atoms: _141  and  _144
REMARK   49  A    between atoms: _144  and  _145
REMARK   50  A    between atoms: _145  and  _146
REMARK   51  A    between atoms: _146  and  _147
REMARK   52  A    between atoms: _156  and  _158
REMARK   53  A    between atoms: _158  and  _159
REMARK   54  A    between atoms: _158  and  _161
REMARK   55  A    between atoms: _161  and  _162
REMARK   56  A    between atoms: _167  and  _168
REMARK   57  A    between atoms: _170  and  _172
REMARK   58  A    between atoms: _172  and  _173
REMARK   59  A    between atoms: _172  and  _175
REMARK   60  A    between atoms: _175  and  _176
REMARK   61  A    between atoms: _178  and  _180
REMARK   62  A    between atoms: _180  and  _181
REMARK   63  A    between atoms: _180  and  _183
REMARK   64  A    between atoms: _183  and  _184
REMARK   65  A    between atoms: _189  and  _190
REMARK   66  A    between atoms: _192  and  _194
REMARK   67  A    between atoms: _194  and  _195
REMARK   68  A    between atoms: _194  and  _197
REMARK   69  A    between atoms: _197  and  _198
REMARK   70  A    between atoms: _201  and  _203
REMARK   71  A    between atoms: _203  and  _204
REMARK   72  A    between atoms: _203  and  _206
REMARK   73  A    between atoms: _206  and  _207
REMARK   74  A    between atoms: _210  and  _212
REMARK   75  A    between atoms: _212  and  _213
REMARK   76  A    between atoms: _212  and  _215
REMARK   77  A    between atoms: _215  and  _216
REMARK   78  A    between atoms: _222  and  _224
REMARK   79  A    between atoms: _224  and  _225
REMARK   80  A    between atoms: _224  and  _227
REMARK   81  A    between atoms: _227  and  _228
REMARK   82  A    between atoms: _233  and  _234
REMARK   83  A    between atoms: _236  and  _238
REMARK   84  A    between atoms: _238  and  _239
REMARK   85  A    between atoms: _238  and  _241
REMARK   86  A    between atoms: _241  and  _242
REMARK   87  A    between atoms: _245  and  _247
REMARK   88  A    between atoms: _247  and  _248
REMARK   89  A    between atoms: _247  and  _250
REMARK   90  A    between atoms: _250  and  _251
REMARK   91  A    between atoms: _261  and  _263
REMARK   92  A    between atoms: _263  and  _264
REMARK   93  A    between atoms: _263  and  _266
REMARK   94  A    between atoms: _266  and  _267
REMARK   95  A    between atoms: _272  and  _274
REMARK   96  A    between atoms: _274  and  _275
REMARK   97  A    between atoms: _274  and  _277
REMARK   98  A    between atoms: _277  and  _278
REMARK   99  A    between atoms: _282  and  ZN_385
REMARK  100  A    between atoms: _283  and  _285
REMARK  101  A    between atoms: _285  and  _286
REMARK  102  A    between atoms: _285  and  _288
REMARK  103  A    between atoms: _288  and  _289
REMARK  104  A    between atoms: _292  and  _294
REMARK  105  A    between atoms: _294  and  _295
REMARK  106  A    between atoms: _297  and  _299
REMARK  107  A    between atoms: _299  and  _300
REMARK  108  A    between atoms: _299  and  _302
REMARK  109  A    between atoms: _302  and  _303
REMARK  110  A    between atoms: _306  and  _308
REMARK  111  A    between atoms: _308  and  _309
REMARK  112  A    between atoms: _308  and  _311
REMARK  113  A    between atoms: _311  and  _312
REMARK  114  A    between atoms: _315  and  _317
REMARK  115  A    between atoms: _317  and  _318
REMARK  116  A    between atoms: _321  and  _323
REMARK  117  A    between atoms: _323  and  _324
REMARK  118  A    between atoms: _323  and  _326
REMARK  119  A    between atoms: _326  and  _327
REMARK  120  A    between atoms: _332  and  _333
REMARK  121  A    between atoms: _335  and  _337
REMARK  122  A    between atoms: _337  and  _338
REMARK  123  A    between atoms: _337  and  _340
REMARK  124  A    between atoms: _340  and  _341
REMARK  125  A    between atoms: _344  and  _346
REMARK  126  A    between atoms: _346  and  _347
REMARK  127  A    between atoms: _346  and  _349
REMARK  128  A    between atoms: _349  and  _350
REMARK  129  A    between atoms: _350  and  _351
REMARK  130  A    between atoms: _354  and  _356
REMARK  131  A    between atoms: _356  and  _357
REMARK  132  A    between atoms: _356  and  _359
REMARK  133  A    between atoms: _359  and  _360
REMARK  134  A    between atoms: _360  and  _361
REMARK  135  A    between atoms: _361  and  _362
REMARK  136  A    between atoms: _371  and  _373
REMARK  137  A    between atoms: _373  and  _374
REMARK  138  A    between atoms: _376  and  _378
REMARK  139  A    between atoms: _378  and  _379
REMARK  140  A    between atoms: _378  and  _381
REMARK  141  A    between atoms: _381  and  _382
REMARK                            x       y       z     vdW  Elec       q    Type
REMARK                         _______ _______ _______ _____ _____    ______ ____
ROOT
ATOM      1  O   HOH     1      24.587  61.035   9.395  0.00  0.00    +0.000 OA
ENDROOT
TORSDOF 0
REMARK  Name = ../refined-set-2016/3d51/3d51_pocket.pdb
REMARK  141 active torsions:
REMARK  status: ('A' for Active; 'I' for Inactive)
REMARK    1  A    between atoms: _1  and  _3
REMARK    2  A    between atoms: _14  and  _17
REMARK    3  A    between atoms: _17  and  _18
REMARK    4  A    between atoms: _25  and  _26
REMARK    5  A    between atoms: _33  and  _34
REMARK    6  A    between atoms: _39  and  _41
REMARK    7  A    between atoms: _41  and  _42
REMARK    8  A    between atoms: _44  and  _46
REMARK    9  A    between atoms: _46  and  _47
REMARK   10  A    between atoms: _46  and  _49
REMARK   11  A    between atoms: _49  and  _50
REMARK   12  A    between atoms: _60  and  _62
REMARK   13  A    between atoms: _62  and  _63
REMARK   14  A    between atoms: _62  and  _65
REMARK   15  A    between atoms: _65  and  _66
REMARK   16  A    between atoms: _69  and  _71
REMARK   17  A    between atoms: _71  and  _72
REMARK   18  A    between atoms: _71  and  _74
REMARK   19  A    between atoms: _74  and  _75
REMARK   20  A    between atoms: _80  and  _81
REMARK   21  A    between atoms: _83  and  _85
REMARK   22  A    between atoms: _85  and  _86
REMARK   23  A    between atoms: _85  and  _88
REMARK   24  A    between atoms: _88  and  _89
REMARK   25  A    between atoms: _89  and  _90
REMARK   26  A    between atoms: _93  and  _95
REMARK   27  A    between atoms: _95  and  _96
REMARK   28  A    between atoms: _95  and  _98
REMARK   29  A    between atoms: _98  and  _99
REMARK   30  A    between atoms: _99  and  _100
REMARK   31  A    between atoms: _102  and  _104
REMARK   32  A    between atoms: _104  and  _105
REMARK   33  A    between atoms: _104  and  _107
REMARK   34  A    between atoms: _107  and  _108
REMARK   35  A    between atoms: _111  and  _113
REMARK   36  A    between atoms: _113  and  _114
REMARK   37  A    between atoms: _113  and  _116
REMARK   38  A    between atoms: _116  and  _117
REMARK   39  A    between atoms: _117  and  _119
REMARK   40  A    between atoms: _119  and  ZN_385
REMARK   41  A    between atoms: _121  and  _122
REMARK   42  A    between atoms: _127  and  _129
REMARK   43  A    between atoms: _129  and  _130
REMARK   44  A    between atoms: _129  and  _132
REMARK   45  A    between atoms: _132  and  _133
REMARK   46  A    between atoms: _139  and  _141
REMARK   47  A    between atoms: _141  and  _142
REMARK   48  A    between atoms: _141  and  _144
REMARK   49  A    between atoms: _144  and  _145
REMARK   50  A    between atoms: _145  and  _146
REMARK   51  A    between atoms: _146  and  _147
REMARK   52  A    between atoms: _156  and  _158
REMARK   53  A    between atoms: _158  and  _159
REMARK   54  A    between atoms: _158  and  _161
REMARK   55  A    between atoms: _161  and  _162
REMARK   56  A    between atoms: _167  and  _168
REMARK   57  A    between atoms: _170  and  _172
REMARK   58  A    between atoms: _172  and  _173
REMARK   59  A    between atoms: _172  and  _175
REMARK   60  A    between atoms: _175  and  _176
REMARK   61  A    between atoms: _178  and  _180
REMARK   62  A    between atoms: _180  and  _181
REMARK   63  A    between atoms: _180  and  _183
REMARK   64  A    between atoms: _183  and  _184
REMARK   65  A    between atoms: _189  and  _190
REMARK   66  A    between atoms: _192  and  _194
REMARK   67  A    between atoms: _194  and  _195
REMARK   68  A    between atoms: _194  and  _197
REMARK   69  A    between atoms: _197  and  _198
REMARK   70  A    between atoms: _201  and  _203
REMARK   71  A    between atoms: _203  and  _204
REMARK   72  A    between atoms: _203  and  _206
REMARK   73  A    between atoms: _206  and  _207
REMARK   74  A    between atoms: _210  and  _212
REMARK   75  A    between atoms: _212  and  _213
REMARK   76  A    between atoms: _212  and  _215
REMARK   77  A    between atoms: _215  and  _216
REMARK   78  A    between atoms: _222  and  _224
REMARK   79  A    between atoms: _224  and  _225
REMARK   80  A    between atoms: _224  and  _227
REMARK   81  A    between atoms: _227  and  _228
REMARK   82  A    between atoms: _233  and  _234
REMARK   83  A    between atoms: _236  and  _238
REMARK   84  A    between atoms: _238  and  _239
REMARK   85  A    between atoms: _238  and  _241
REMARK   86  A    between atoms: _241  and  _242
REMARK   87  A    between atoms: _245  and  _247
REMARK   88  A    between atoms: _247  and  _248
REMARK   89  A    between atoms: _247  and  _250
REMARK   90  A    between atoms: _250  and  _251
REMARK   91  A    between atoms: _261  and  _263
REMARK   92  A    between atoms: _263  and  _264
REMARK   93  A    between atoms: _263  and  _266
REMARK   94  A    between atoms: _266  and  _267
REMARK   95  A    between atoms: _272  and  _274
REMARK   96  A    between atoms: _274  and  _275
REMARK   97  A    between atoms: _274  and  _277
REMARK   98  A    between atoms: _277  and  _278
REMARK   99  A    between atoms: _282  and  ZN_385
REMARK  100  A    between atoms: _283  and  _285
REMARK  101  A    between atoms: _285  and  _286
REMARK  102  A    between atoms: _285  and  _288
REMARK  103  A    between atoms: _288  and  _289
REMARK  104  A    between atoms: _292  and  _294
REMARK  105  A    between atoms: _294  and  _295
REMARK  106  A    between atoms: _297  and  _299
REMARK  107  A    between atoms: _299  and  _300
REMARK  108  A    between atoms: _299  and  _302
REMARK  109  A    between atoms: _302  and  _303
REMARK  110  A    between atoms: _306  and  _308
REMARK  111  A    between atoms: _308  and  _309
REMARK  112  A    between atoms: _308  and  _311
REMARK  113  A    between atoms: _311  and  _312
REMARK  114  A    between atoms: _315  and  _317
REMARK  115  A    between atoms: _317  and  _318
REMARK  116  A    between atoms: _321  and  _323
REMARK  117  A    between atoms: _323  and  _324
REMARK  118  A    between atoms: _323  and  _326
REMARK  119  A    between atoms: _326  and  _327
REMARK  120  A    between atoms: _332  and  _333
REMARK  121  A    between atoms: _335  and  _337
REMARK  122  A    between atoms: _337  and  _338
REMARK  123  A    between atoms: _337  and  _340
REMARK  124  A    between atoms: _340  and  _341
REMARK  125  A    between atoms: _344  and  _346
REMARK  126  A    between atoms: _346  and  _347
REMARK  127  A    between atoms: _346  and  _349
REMARK  128  A    between atoms: _349  and  _350
REMARK  129  A    between atoms: _350  and  _351
REMARK  130  A    between atoms: _354  and  _356
REMARK  131  A    between atoms: _356  and  _357
REMARK  132  A    between atoms: _356  and  _359
REMARK  133  A    between atoms: _359  and  _360
REMARK  134  A    between atoms: _360  and  _361
REMARK  135  A    between atoms: _361  and  _362
REMARK  136  A    between atoms: _371  and  _373
REMARK  137  A    between atoms: _373  and  _374
REMARK  138  A    between atoms: _376  and  _378
REMARK  139  A    between atoms: _378  and  _379
REMARK  140  A    between atoms: _378  and  _381
REMARK  141  A    between atoms: _381  and  _382
REMARK                            x       y       z     vdW  Elec       q    Type
REMARK                         _______ _______ _______ _____ _____    ______ ____
ROOT
ATOM      1  O   HOH     1      24.244  62.865  11.674  0.00  0.00    +0.000 OA
ENDROOT
TORSDOF 0
REMARK  Name = ../refined-set-2016/3d51/3d51_pocket.pdb
REMARK  141 active torsions:
REMARK  status: ('A' for Active; 'I' for Inactive)
REMARK    1  A    between atoms: _1  and  _3
REMARK    2  A    between atoms: _14  and  _17
REMARK    3  A    between atoms: _17  and  _18
REMARK    4  A    between atoms: _25  and  _26
REMARK    5  A    between atoms: _33  and  _34
REMARK    6  A    between atoms: _39  and  _41
REMARK    7  A    between atoms: _41  and  _42
REMARK    8  A    between atoms: _44  and  _46
REMARK    9  A    between atoms: _46  and  _47
REMARK   10  A    between atoms: _46  and  _49
REMARK   11  A    between atoms: _49  and  _50
REMARK   12  A    between atoms: _60  and  _62
REMARK   13  A    between atoms: _62  and  _63
REMARK   14  A    between atoms: _62  and  _65
REMARK   15  A    between atoms: _65  and  _66
REMARK   16  A    between atoms: _69  and  _71
REMARK   17  A    between atoms: _71  and  _72
REMARK   18  A    between atoms: _71  and  _74
REMARK   19  A    between atoms: _74  and  _75
REMARK   20  A    between atoms: _80  and  _81
REMARK   21  A    between atoms: _83  and  _85
REMARK   22  A    between atoms: _85  and  _86
REMARK   23  A    between atoms: _85  and  _88
REMARK   24  A    between atoms: _88  and  _89
REMARK   25  A    between atoms: _89  and  _90
REMARK   26  A    between atoms: _93  and  _95
REMARK   27  A    between atoms: _95  and  _96
REMARK   28  A    between atoms: _95  and  _98
REMARK   29  A    between atoms: _98  and  _99
REMARK   30  A    between atoms: _99  and  _100
REMARK   31  A    between atoms: _102  and  _104
REMARK   32  A    between atoms: _104  and  _105
REMARK   33  A    between atoms: _104  and  _107
REMARK   34  A    between atoms: _107  and  _108
REMARK   35  A    between atoms: _111  and  _113
REMARK   36  A    between atoms: _113  and  _114
REMARK   37  A    between atoms: _113  and  _116
REMARK   38  A    between atoms: _116  and  _117
REMARK   39  A    between atoms: _117  and  _119
REMARK   40  A    between atoms: _119  and  ZN_385
REMARK   41  A    between atoms: _121  and  _122
REMARK   42  A    between atoms: _127  and  _129
REMARK   43  A    between atoms: _129  and  _130
REMARK   44  A    between atoms: _129  and  _132
REMARK   45  A    between atoms: _132  and  _133
REMARK   46  A    between atoms: _139  and  _141
REMARK   47  A    between atoms: _141  and  _142
REMARK   48  A    between atoms: _141  and  _144
REMARK   49  A    between atoms: _144  and  _145
REMARK   50  A    between atoms: _145  and  _146
REMARK   51  A    between atoms: _146  and  _147
REMARK   52  A    between atoms: _156  and  _158
REMARK   53  A    between atoms: _158  and  _159
REMARK   54  A    between atoms: _158  and  _161
REMARK   55  A    between atoms: _161  and  _162
REMARK   56  A    between atoms: _167  and  _168
REMARK   57  A    between atoms: _170  and  _172
REMARK   58  A    between atoms: _172  and  _173
REMARK   59  A    between atoms: _172  and  _175
REMARK   60  A    between atoms: _175  and  _176
REMARK   61  A    between atoms: _178  and  _180
REMARK   62  A    between atoms: _180  and  _181
REMARK   63  A    between atoms: _180  and  _183
REMARK   64  A    between atoms: _183  and  _184
REMARK   65  A    between atoms: _189  and  _190
REMARK   66  A    between atoms: _192  and  _194
REMARK   67  A    between atoms: _194  and  _195
REMARK   68  A    between atoms: _194  and  _197
REMARK   69  A    between atoms: _197  and  _198
REMARK   70  A    between atoms: _201  and  _203
REMARK   71  A    between atoms: _203  and  _204
REMARK   72  A    between atoms: _203  and  _206
REMARK   73  A    between atoms: _206  and  _207
REMARK   74  A    between atoms: _210  and  _212
REMARK   75  A    between atoms: _212  and  _213
REMARK   76  A    between atoms: _212  and  _215
REMARK   77  A    between atoms: _215  and  _216
REMARK   78  A    between atoms: _222  and  _224
REMARK   79  A    between atoms: _224  and  _225
REMARK   80  A    between atoms: _224  and  _227
REMARK   81  A    between atoms: _227  and  _228
REMARK   82  A    between atoms: _233  and  _234
REMARK   83  A    between atoms: _236  and  _238
REMARK   84  A    between atoms: _238  and  _239
REMARK   85  A    between atoms: _238  and  _241
REMARK   86  A    between atoms: _241  and  _242
REMARK   87  A    between atoms: _245  and  _247
REMARK   88  A    between atoms: _247  and  _248
REMARK   89  A    between atoms: _247  and  _250
REMARK   90  A    between atoms: _250  and  _251
REMARK   91  A    between atoms: _261  and  _263
REMARK   92  A    between atoms: _263  and  _264
REMARK   93  A    between atoms: _263  and  _266
REMARK   94  A    between atoms: _266  and  _267
REMARK   95  A    between atoms: _272  and  _274
REMARK   96  A    between atoms: _274  and  _275
REMARK   97  A    between atoms: _274  and  _277
REMARK   98  A    between atoms: _277  and  _278
REMARK   99  A    between atoms: _282  and  ZN_385
REMARK  100  A    between atoms: _283  and  _285
REMARK  101  A    between atoms: _285  and  _286
REMARK  102  A    between atoms: _285  and  _288
REMARK  103  A    between atoms: _288  and  _289
REMARK  104  A    between atoms: _292  and  _294
REMARK  105  A    between atoms: _294  and  _295
REMARK  106  A    between atoms: _297  and  _299
REMARK  107  A    between atoms: _299  and  _300
REMARK  108  A    between atoms: _299  and  _302
REMARK  109  A    between atoms: _302  and  _303
REMARK  110  A    between atoms: _306  and  _308
REMARK  111  A    between atoms: _308  and  _309
REMARK  112  A    between atoms: _308  and  _311
REMARK  113  A    between atoms: _311  and  _312
REMARK  114  A    between atoms: _315  and  _317
REMARK  115  A    between atoms: _317  and  _318
REMARK  116  A    between atoms: _321  and  _323
REMARK  117  A    between atoms: _323  and  _324
REMARK  118  A    between atoms: _323  and  _326
REMARK  119  A    between atoms: _326  and  _327
REMARK  120  A    between atoms: _332  and  _333
REMARK  121  A    between atoms: _335  and  _337
REMARK  122  A    between atoms: _337  and  _338
REMARK  123  A    between atoms: _337  and  _340
REMARK  124  A    between atoms: _340  and  _341
REMARK  125  A    between atoms: _344  and  _346
REMARK  126  A    between atoms: _346  and  _347
REMARK  127  A    between atoms: _346  and  _349
REMARK  128  A    between atoms: _349  and  _350
REMARK  129  A    between atoms: _350  and  _351
REMARK  130  A    between atoms: _354  and  _356
REMARK  131  A    between atoms: _356  and  _357
REMARK  132  A    between atoms: _356  and  _359
REMARK  133  A    between atoms: _359  and  _360
REMARK  134  A    between atoms: _360  and  _361
REMARK  135  A    between atoms: _361  and  _362
REMARK  136  A    between atoms: _371  and  _373
REMARK  137  A    between atoms: _373  and  _374
REMARK  138  A    between atoms: _376  and  _378
REMARK  139  A    between atoms: _378  and  _379
REMARK  140  A    between atoms: _378  and  _381
REMARK  141  A    between atoms: _381  and  _382
REMARK                            x       y       z     vdW  Elec       q    Type
REMARK                         _______ _______ _______ _____ _____    ______ ____
ROOT
ATOM      1  O   HOH     1      20.705  64.857   7.903  0.00  0.00    +0.000 OA
ENDROOT
TORSDOF 0
REMARK  Name = ../refined-set-2016/3d51/3d51_pocket.pdb
REMARK  141 active torsions:
REMARK  status: ('A' for Active; 'I' for Inactive)
REMARK    1  A    between atoms: _1  and  _3
REMARK    2  A    between atoms: _14  and  _17
REMARK    3  A    between atoms: _17  and  _18
REMARK    4  A    between atoms: _25  and  _26
REMARK    5  A    between atoms: _33  and  _34
REMARK    6  A    between atoms: _39  and  _41
REMARK    7  A    between atoms: _41  and  _42
REMARK    8  A    between atoms: _44  and  _46
REMARK    9  A    between atoms: _46  and  _47
REMARK   10  A    between atoms: _46  and  _49
REMARK   11  A    between atoms: _49  and  _50
REMARK   12  A    between atoms: _60  and  _62
REMARK   13  A    between atoms: _62  and  _63
REMARK   14  A    between atoms: _62  and  _65
REMARK   15  A    between atoms: _65  and  _66
REMARK   16  A    between atoms: _69  and  _71
REMARK   17  A    between atoms: _71  and  _72
REMARK   18  A    between atoms: _71  and  _74
REMARK   19  A    between atoms: _74  and  _75
REMARK   20  A    between atoms: _80  and  _81
REMARK   21  A    between atoms: _83  and  _85
REMARK   22  A    between atoms: _85  and  _86
REMARK   23  A    between atoms: _85  and  _88
REMARK   24  A    between atoms: _88  and  _89
REMARK   25  A    between atoms: _89  and  _90
REMARK   26  A    between atoms: _93  and  _95
REMARK   27  A    between atoms: _95  and  _96
REMARK   28  A    between atoms: _95  and  _98
REMARK   29  A    between atoms: _98  and  _99
REMARK   30  A    between atoms: _99  and  _100
REMARK   31  A    between atoms: _102  and  _104
REMARK   32  A    between atoms: _104  and  _105
REMARK   33  A    between atoms: _104  and  _107
REMARK   34  A    between atoms: _107  and  _108
REMARK   35  A    between atoms: _111  and  _113
REMARK   36  A    between atoms: _113  and  _114
REMARK   37  A    between atoms: _113  and  _116
REMARK   38  A    between atoms: _116  and  _117
REMARK   39  A    between atoms: _117  and  _119
REMARK   40  A    between atoms: _119  and  ZN_385
REMARK   41  A    between atoms: _121  and  _122
REMARK   42  A    between atoms: _127  and  _129
REMARK   43  A    between atoms: _129  and  _130
REMARK   44  A    between atoms: _129  and  _132
REMARK   45  A    between atoms: _132  and  _133
REMARK   46  A    between atoms: _139  and  _141
REMARK   47  A    between atoms: _141  and  _142
REMARK   48  A    between atoms: _141  and  _144
REMARK   49  A    between atoms: _144  and  _145
REMARK   50  A    between atoms: _145  and  _146
REMARK   51  A    between atoms: _146  and  _147
REMARK   52  A    between atoms: _156  and  _158
REMARK   53  A    between atoms: _158  and  _159
REMARK   54  A    between atoms: _158  and  _161
REMARK   55  A    between atoms: _161  and  _162
REMARK   56  A    between atoms: _167  and  _168
REMARK   57  A    between atoms: _170  and  _172
REMARK   58  A    between atoms: _172  and  _173
REMARK   59  A    between atoms: _172  and  _175
REMARK   60  A    between atoms: _175  and  _176
REMARK   61  A    between atoms: _178  and  _180
REMARK   62  A    between atoms: _180  and  _181
REMARK   63  A    between atoms: _180  and  _183
REMARK   64  A    between atoms: _183  and  _184
REMARK   65  A    between atoms: _189  and  _190
REMARK   66  A    between atoms: _192  and  _194
REMARK   67  A    between atoms: _194  and  _195
REMARK   68  A    between atoms: _194  and  _197
REMARK   69  A    between atoms: _197  and  _198
REMARK   70  A    between atoms: _201  and  _203
REMARK   71  A    between atoms: _203  and  _204
REMARK   72  A    between atoms: _203  and  _206
REMARK   73  A    between atoms: _206  and  _207
REMARK   74  A    between atoms: _210  and  _212
REMARK   75  A    between atoms: _212  and  _213
REMARK   76  A    between atoms: _212  and  _215
REMARK   77  A    between atoms: _215  and  _216
REMARK   78  A    between atoms: _222  and  _224
REMARK   79  A    between atoms: _224  and  _225
REMARK   80  A    between atoms: _224  and  _227
REMARK   81  A    between atoms: _227  and  _228
REMARK   82  A    between atoms: _233  and  _234
REMARK   83  A    between atoms: _236  and  _238
REMARK   84  A    between atoms: _238  and  _239
REMARK   85  A    between atoms: _238  and  _241
REMARK   86  A    between atoms: _241  and  _242
REMARK   87  A    between atoms: _245  and  _247
REMARK   88  A    between atoms: _247  and  _248
REMARK   89  A    between atoms: _247  and  _250
REMARK   90  A    between atoms: _250  and  _251
REMARK   91  A    between atoms: _261  and  _263
REMARK   92  A    between atoms: _263  and  _264
REMARK   93  A    between atoms: _263  and  _266
REMARK   94  A    between atoms: _266  and  _267
REMARK   95  A    between atoms: _272  and  _274
REMARK   96  A    between atoms: _274  and  _275
REMARK   97  A    between atoms: _274  and  _277
REMARK   98  A    between atoms: _277  and  _278
REMARK   99  A    between atoms: _282  and  ZN_385
REMARK  100  A    between atoms: _283  and  _285
REMARK  101  A    between atoms: _285  and  _286
REMARK  102  A    between atoms: _285  and  _288
REMARK  103  A    between atoms: _288  and  _289
REMARK  104  A    between atoms: _292  and  _294
REMARK  105  A    between atoms: _294  and  _295
REMARK  106  A    between atoms: _297  and  _299
REMARK  107  A    between atoms: _299  and  _300
REMARK  108  A    between atoms: _299  and  _302
REMARK  109  A    between atoms: _302  and  _303
REMARK  110  A    between atoms: _306  and  _308
REMARK  111  A    between atoms: _308  and  _309
REMARK  112  A    between atoms: _308  and  _311
REMARK  113  A    between atoms: _311  and  _312
REMARK  114  A    between atoms: _315  and  _317
REMARK  115  A    between atoms: _317  and  _318
REMARK  116  A    between atoms: _321  and  _323
REMARK  117  A    between atoms: _323  and  _324
REMARK  118  A    between atoms: _323  and  _326
REMARK  119  A    between atoms: _326  and  _327
REMARK  120  A    between atoms: _332  and  _333
REMARK  121  A    between atoms: _335  and  _337
REMARK  122  A    between atoms: _337  and  _338
REMARK  123  A    between atoms: _337  and  _340
REMARK  124  A    between atoms: _340  and  _341
REMARK  125  A    between atoms: _344  and  _346
REMARK  126  A    between atoms: _346  and  _347
REMARK  127  A    between atoms: _346  and  _349
REMARK  128  A    between atoms: _349  and  _350
REMARK  129  A    between atoms: _350  and  _351
REMARK  130  A    between atoms: _354  and  _356
REMARK  131  A    between atoms: _356  and  _357
REMARK  132  A    between atoms: _356  and  _359
REMARK  133  A    between atoms: _359  and  _360
REMARK  134  A    between atoms: _360  and  _361
REMARK  135  A    between atoms: _361  and  _362
REMARK  136  A    between atoms: _371  and  _373
REMARK  137  A    between atoms: _373  and  _374
REMARK  138  A    between atoms: _376  and  _378
REMARK  139  A    between atoms: _378  and  _379
REMARK  140  A    between atoms: _378  and  _381
REMARK  141  A    between atoms: _381  and  _382
REMARK                            x       y       z     vdW  Elec       q    Type
REMARK                         _______ _______ _______ _____ _____    ______ ____
ROOT
ATOM      1  O   HOH     1      20.573  67.614   8.631  0.00  0.00    +0.000 OA
ENDROOT
TORSDOF 0
REMARK  Name = ../refined-set-2016/3d51/3d51_pocket.pdb
REMARK  141 active torsions:
REMARK  status: ('A' for Active; 'I' for Inactive)
REMARK    1  A    between atoms: _1  and  _3
REMARK    2  A    between atoms: _14  and  _17
REMARK    3  A    between atoms: _17  and  _18
REMARK    4  A    between atoms: _25  and  _26
REMARK    5  A    between atoms: _33  and  _34
REMARK    6  A    between atoms: _39  and  _41
REMARK    7  A    between atoms: _41  and  _42
REMARK    8  A    between atoms: _44  and  _46
REMARK    9  A    between atoms: _46  and  _47
REMARK   10  A    between atoms: _46  and  _49
REMARK   11  A    between atoms: _49  and  _50
REMARK   12  A    between atoms: _60  and  _62
REMARK   13  A    between atoms: _62  and  _63
REMARK   14  A    between atoms: _62  and  _65
REMARK   15  A    between atoms: _65  and  _66
REMARK   16  A    between atoms: _69  and  _71
REMARK   17  A    between atoms: _71  and  _72
REMARK   18  A    between atoms: _71  and  _74
REMARK   19  A    between atoms: _74  and  _75
REMARK   20  A    between atoms: _80  and  _81
REMARK   21  A    between atoms: _83  and  _85
REMARK   22  A    between atoms: _85  and  _86
REMARK   23  A    between atoms: _85  and  _88
REMARK   24  A    between atoms: _88  and  _89
REMARK   25  A    between atoms: _89  and  _90
REMARK   26  A    between atoms: _93  and  _95
REMARK   27  A    between atoms: _95  and  _96
REMARK   28  A    between atoms: _95  and  _98
REMARK   29  A    between atoms: _98  and  _99
REMARK   30  A    between atoms: _99  and  _100
REMARK   31  A    between atoms: _102  and  _104
REMARK   32  A    between atoms: _104  and  _105
REMARK   33  A    between atoms: _104  and  _107
REMARK   34  A    between atoms: _107  and  _108
REMARK   35  A    between atoms: _111  and  _113
REMARK   36  A    between atoms: _113  and  _114
REMARK   37  A    between atoms: _113  and  _116
REMARK   38  A    between atoms: _116  and  _117
REMARK   39  A    between atoms: _117  and  _119
REMARK   40  A    between atoms: _119  and  ZN_385
REMARK   41  A    between atoms: _121  and  _122
REMARK   42  A    between atoms: _127  and  _129
REMARK   43  A    between atoms: _129  and  _130
REMARK   44  A    between atoms: _129  and  _132
REMARK   45  A    between atoms: _132  and  _133
REMARK   46  A    between atoms: _139  and  _141
REMARK   47  A    between atoms: _141  and  _142
REMARK   48  A    between atoms: _141  and  _144
REMARK   49  A    between atoms: _144  and  _145
REMARK   50  A    between atoms: _145  and  _146
REMARK   51  A    between atoms: _146  and  _147
REMARK   52  A    between atoms: _156  and  _158
REMARK   53  A    between atoms: _158  and  _159
REMARK   54  A    between atoms: _158  and  _161
REMARK   55  A    between atoms: _161  and  _162
REMARK   56  A    between atoms: _167  and  _168
REMARK   57  A    between atoms: _170  and  _172
REMARK   58  A    between atoms: _172  and  _173
REMARK   59  A    between atoms: _172  and  _175
REMARK   60  A    between atoms: _175  and  _176
REMARK   61  A    between atoms: _178  and  _180
REMARK   62  A    between atoms: _180  and  _181
REMARK   63  A    between atoms: _180  and  _183
REMARK   64  A    between atoms: _183  and  _184
REMARK   65  A    between atoms: _189  and  _190
REMARK   66  A    between atoms: _192  and  _194
REMARK   67  A    between atoms: _194  and  _195
REMARK   68  A    between atoms: _194  and  _197
REMARK   69  A    between atoms: _197  and  _198
REMARK   70  A    between atoms: _201  and  _203
REMARK   71  A    between atoms: _203  and  _204
REMARK   72  A    between atoms: _203  and  _206
REMARK   73  A    between atoms: _206  and  _207
REMARK   74  A    between atoms: _210  and  _212
REMARK   75  A    between atoms: _212  and  _213
REMARK   76  A    between atoms: _212  and  _215
REMARK   77  A    between atoms: _215  and  _216
REMARK   78  A    between atoms: _222  and  _224
REMARK   79  A    between atoms: _224  and  _225
REMARK   80  A    between atoms: _224  and  _227
REMARK   81  A    between atoms: _227  and  _228
REMARK   82  A    between atoms: _233  and  _234
REMARK   83  A    between atoms: _236  and  _238
REMARK   84  A    between atoms: _238  and  _239
REMARK   85  A    between atoms: _238  and  _241
REMARK   86  A    between atoms: _241  and  _242
REMARK   87  A    between atoms: _245  and  _247
REMARK   88  A    between atoms: _247  and  _248
REMARK   89  A    between atoms: _247  and  _250
REMARK   90  A    between atoms: _250  and  _251
REMARK   91  A    between atoms: _261  and  _263
REMARK   92  A    between atoms: _263  and  _264
REMARK   93  A    between atoms: _263  and  _266
REMARK   94  A    between atoms: _266  and  _267
REMARK   95  A    between atoms: _272  and  _274
REMARK   96  A    between atoms: _274  and  _275
REMARK   97  A    between atoms: _274  and  _277
REMARK   98  A    between atoms: _277  and  _278
REMARK   99  A    between atoms: _282  and  ZN_385
REMARK  100  A    between atoms: _283  and  _285
REMARK  101  A    between atoms: _285  and  _286
REMARK  102  A    between atoms: _285  and  _288
REMARK  103  A    between atoms: _288  and  _289
REMARK  104  A    between atoms: _292  and  _294
REMARK  105  A    between atoms: _294  and  _295
REMARK  106  A    between atoms: _297  and  _299
REMARK  107  A    between atoms: _299  and  _300
REMARK  108  A    between atoms: _299  and  _302
REMARK  109  A    between atoms: _302  and  _303
REMARK  110  A    between atoms: _306  and  _308
REMARK  111  A    between atoms: _308  and  _309
REMARK  112  A    between atoms: _308  and  _311
REMARK  113  A    between atoms: _311  and  _312
REMARK  114  A    between atoms: _315  and  _317
REMARK  115  A    between atoms: _317  and  _318
REMARK  116  A    between atoms: _321  and  _323
REMARK  117  A    between atoms: _323  and  _324
REMARK  118  A    between atoms: _323  and  _326
REMARK  119  A    between atoms: _326  and  _327
REMARK  120  A    between atoms: _332  and  _333
REMARK  121  A    between atoms: _335  and  _337
REMARK  122  A    between atoms: _337  and  _338
REMARK  123  A    between atoms: _337  and  _340
REMARK  124  A    between atoms: _340  and  _341
REMARK  125  A    between atoms: _344  and  _346
REMARK  126  A    between atoms: _346  and  _347
REMARK  127  A    between atoms: _346  and  _349
REMARK  128  A    between atoms: _349  and  _350
REMARK  129  A    between atoms: _350  and  _351
REMARK  130  A    between atoms: _354  and  _356
REMARK  131  A    between atoms: _356  and  _357
REMARK  132  A    between atoms: _356  and  _359
REMARK  133  A    between atoms: _359  and  _360
REMARK  134  A    between atoms: _360  and  _361
REMARK  135  A    between atoms: _361  and  _362
REMARK  136  A    between atoms: _371  and  _373
REMARK  137  A    between atoms: _373  and  _374
REMARK  138  A    between atoms: _376  and  _378
REMARK  139  A    between atoms: _378  and  _379
REMARK  140  A    between atoms: _378  and  _381
REMARK  141  A    between atoms: _381  and  _382
REMARK                            x       y       z     vdW  Elec       q    Type
REMARK                         _______ _______ _______ _____ _____    ______ ____
ROOT
ATOM      1  O   HOH     1      24.859  73.271   9.209  0.00  0.00    +0.000 OA
ENDROOT
TORSDOF 0
REMARK  Name = ../refined-set-2016/3d51/3d51_pocket.pdb
REMARK  141 active torsions:
REMARK  status: ('A' for Active; 'I' for Inactive)
REMARK    1  A    between atoms: _1  and  _3
REMARK    2  A    between atoms: _14  and  _17
REMARK    3  A    between atoms: _17  and  _18
REMARK    4  A    between atoms: _25  and  _26
REMARK    5  A    between atoms: _33  and  _34
REMARK    6  A    between atoms: _39  and  _41
REMARK    7  A    between atoms: _41  and  _42
REMARK    8  A    between atoms: _44  and  _46
REMARK    9  A    between atoms: _46  and  _47
REMARK   10  A    between atoms: _46  and  _49
REMARK   11  A    between atoms: _49  and  _50
REMARK   12  A    between atoms: _60  and  _62
REMARK   13  A    between atoms: _62  and  _63
REMARK   14  A    between atoms: _62  and  _65
REMARK   15  A    between atoms: _65  and  _66
REMARK   16  A    between atoms: _69  and  _71
REMARK   17  A    between atoms: _71  and  _72
REMARK   18  A    between atoms: _71  and  _74
REMARK   19  A    between atoms: _74  and  _75
REMARK   20  A    between atoms: _80  and  _81
REMARK   21  A    between atoms: _83  and  _85
REMARK   22  A    between atoms: _85  and  _86
REMARK   23  A    between atoms: _85  and  _88
REMARK   24  A    between atoms: _88  and  _89
REMARK   25  A    between atoms: _89  and  _90
REMARK   26  A    between atoms: _93  and  _95
REMARK   27  A    between atoms: _95  and  _96
REMARK   28  A    between atoms: _95  and  _98
REMARK   29  A    between atoms: _98  and  _99
REMARK   30  A    between atoms: _99  and  _100
REMARK   31  A    between atoms: _102  and  _104
REMARK   32  A    between atoms: _104  and  _105
REMARK   33  A    between atoms: _104  and  _107
REMARK   34  A    between atoms: _107  and  _108
REMARK   35  A    between atoms: _111  and  _113
REMARK   36  A    between atoms: _113  and  _114
REMARK   37  A    between atoms: _113  and  _116
REMARK   38  A    between atoms: _116  and  _117
REMARK   39  A    between atoms: _117  and  _119
REMARK   40  A    between atoms: _119  and  ZN_385
REMARK   41  A    between atoms: _121  and  _122
REMARK   42  A    between atoms: _127  and  _129
REMARK   43  A    between atoms: _129  and  _130
REMARK   44  A    between atoms: _129  and  _132
REMARK   45  A    between atoms: _132  and  _133
REMARK   46  A    between atoms: _139  and  _141
REMARK   47  A    between atoms: _141  and  _142
REMARK   48  A    between atoms: _141  and  _144
REMARK   49  A    between atoms: _144  and  _145
REMARK   50  A    between atoms: _145  and  _146
REMARK   51  A    between atoms: _146  and  _147
REMARK   52  A    between atoms: _156  and  _158
REMARK   53  A    between atoms: _158  and  _159
REMARK   54  A    between atoms: _158  and  _161
REMARK   55  A    between atoms: _161  and  _162
REMARK   56  A    between atoms: _167  and  _168
REMARK   57  A    between atoms: _170  and  _172
REMARK   58  A    between atoms: _172  and  _173
REMARK   59  A    between atoms: _172  and  _175
REMARK   60  A    between atoms: _175  and  _176
REMARK   61  A    between atoms: _178  and  _180
REMARK   62  A    between atoms: _180  and  _181
REMARK   63  A    between atoms: _180  and  _183
REMARK   64  A    between atoms: _183  and  _184
REMARK   65  A    between atoms: _189  and  _190
REMARK   66  A    between atoms: _192  and  _194
REMARK   67  A    between atoms: _194  and  _195
REMARK   68  A    between atoms: _194  and  _197
REMARK   69  A    between atoms: _197  and  _198
REMARK   70  A    between atoms: _201  and  _203
REMARK   71  A    between atoms: _203  and  _204
REMARK   72  A    between atoms: _203  and  _206
REMARK   73  A    between atoms: _206  and  _207
REMARK   74  A    between atoms: _210  and  _212
REMARK   75  A    between atoms: _212  and  _213
REMARK   76  A    between atoms: _212  and  _215
REMARK   77  A    between atoms: _215  and  _216
REMARK   78  A    between atoms: _222  and  _224
REMARK   79  A    between atoms: _224  and  _225
REMARK   80  A    between atoms: _224  and  _227
REMARK   81  A    between atoms: _227  and  _228
REMARK   82  A    between atoms: _233  and  _234
REMARK   83  A    between atoms: _236  and  _238
REMARK   84  A    between atoms: _238  and  _239
REMARK   85  A    between atoms: _238  and  _241
REMARK   86  A    between atoms: _241  and  _242
REMARK   87  A    between atoms: _245  and  _247
REMARK   88  A    between atoms: _247  and  _248
REMARK   89  A    between atoms: _247  and  _250
REMARK   90  A    between atoms: _250  and  _251
REMARK   91  A    between atoms: _261  and  _263
REMARK   92  A    between atoms: _263  and  _264
REMARK   93  A    between atoms: _263  and  _266
REMARK   94  A    between atoms: _266  and  _267
REMARK   95  A    between atoms: _272  and  _274
REMARK   96  A    between atoms: _274  and  _275
REMARK   97  A    between atoms: _274  and  _277
REMARK   98  A    between atoms: _277  and  _278
REMARK   99  A    between atoms: _282  and  ZN_385
REMARK  100  A    between atoms: _283  and  _285
REMARK  101  A    between atoms: _285  and  _286
REMARK  102  A    between atoms: _285  and  _288
REMARK  103  A    between atoms: _288  and  _289
REMARK  104  A    between atoms: _292  and  _294
REMARK  105  A    between atoms: _294  and  _295
REMARK  106  A    between atoms: _297  and  _299
REMARK  107  A    between atoms: _299  and  _300
REMARK  108  A    between atoms: _299  and  _302
REMARK  109  A    between atoms: _302  and  _303
REMARK  110  A    between atoms: _306  and  _308
REMARK  111  A    between atoms: _308  and  _309
REMARK  112  A    between atoms: _308  and  _311
REMARK  113  A    between atoms: _311  and  _312
REMARK  114  A    between atoms: _315  and  _317
REMARK  115  A    between atoms: _317  and  _318
REMARK  116  A    between atoms: _321  and  _323
REMARK  117  A    between atoms: _323  and  _324
REMARK  118  A    between atoms: _323  and  _326
REMARK  119  A    between atoms: _326  and  _327
REMARK  120  A    between atoms: _332  and  _333
REMARK  121  A    between atoms: _335  and  _337
REMARK  122  A    between atoms: _337  and  _338
REMARK  123  A    between atoms: _337  and  _340
REMARK  124  A    between atoms: _340  and  _341
REMARK  125  A    between atoms: _344  and  _346
REMARK  126  A    between atoms: _346  and  _347
REMARK  127  A    between atoms: _346  and  _349
REMARK  128  A    between atoms: _349  and  _350
REMARK  129  A    between atoms: _350  and  _351
REMARK  130  A    between atoms: _354  and  _356
REMARK  131  A    between atoms: _356  and  _357
REMARK  132  A    between atoms: _356  and  _359
REMARK  133  A    between atoms: _359  and  _360
REMARK  134  A    between atoms: _360  and  _361
REMARK  135  A    between atoms: _361  and  _362
REMARK  136  A    between atoms: _371  and  _373
REMARK  137  A    between atoms: _373  and  _374
REMARK  138  A    between atoms: _376  and  _378
REMARK  139  A    between atoms: _378  and  _379
REMARK  140  A    between atoms: _378  and  _381
REMARK  141  A    between atoms: _381  and  _382
REMARK                            x       y       z     vdW  Elec       q    Type
REMARK                         _______ _______ _______ _____ _____    ______ ____
ROOT
ATOM      1  O   HOH     1      25.914  72.356   5.909  0.00  0.00    +0.000 OA
ENDROOT
TORSDOF 0
REMARK  Name = ../refined-set-2016/3d51/3d51_pocket.pdb
REMARK  141 active torsions:
REMARK  status: ('A' for Active; 'I' for Inactive)
REMARK    1  A    between atoms: _1  and  _3
REMARK    2  A    between atoms: _14  and  _17
REMARK    3  A    between atoms: _17  and  _18
REMARK    4  A    between atoms: _25  and  _26
REMARK    5  A    between atoms: _33  and  _34
REMARK    6  A    between atoms: _39  and  _41
REMARK    7  A    between atoms: _41  and  _42
REMARK    8  A    between atoms: _44  and  _46
REMARK    9  A    between atoms: _46  and  _47
REMARK   10  A    between atoms: _46  and  _49
REMARK   11  A    between atoms: _49  and  _50
REMARK   12  A    between atoms: _60  and  _62
REMARK   13  A    between atoms: _62  and  _63
REMARK   14  A    between atoms: _62  and  _65
REMARK   15  A    between atoms: _65  and  _66
REMARK   16  A    between atoms: _69  and  _71
REMARK   17  A    between atoms: _71  and  _72
REMARK   18  A    between atoms: _71  and  _74
REMARK   19  A    between atoms: _74  and  _75
REMARK   20  A    between atoms: _80  and  _81
REMARK   21  A    between atoms: _83  and  _85
REMARK   22  A    between atoms: _85  and  _86
REMARK   23  A    between atoms: _85  and  _88
REMARK   24  A    between atoms: _88  and  _89
REMARK   25  A    between atoms: _89  and  _90
REMARK   26  A    between atoms: _93  and  _95
REMARK   27  A    between atoms: _95  and  _96
REMARK   28  A    between atoms: _95  and  _98
REMARK   29  A    between atoms: _98  and  _99
REMARK   30  A    between atoms: _99  and  _100
REMARK   31  A    between atoms: _102  and  _104
REMARK   32  A    between atoms: _104  and  _105
REMARK   33  A    between atoms: _104  and  _107
REMARK   34  A    between atoms: _107  and  _108
REMARK   35  A    between atoms: _111  and  _113
REMARK   36  A    between atoms: _113  and  _114
REMARK   37  A    between atoms: _113  and  _116
REMARK   38  A    between atoms: _116  and  _117
REMARK   39  A    between atoms: _117  and  _119
REMARK   40  A    between atoms: _119  and  ZN_385
REMARK   41  A    between atoms: _121  and  _122
REMARK   42  A    between atoms: _127  and  _129
REMARK   43  A    between atoms: _129  and  _130
REMARK   44  A    between atoms: _129  and  _132
REMARK   45  A    between atoms: _132  and  _133
REMARK   46  A    between atoms: _139  and  _141
REMARK   47  A    between atoms: _141  and  _142
REMARK   48  A    between atoms: _141  and  _144
REMARK   49  A    between atoms: _144  and  _145
REMARK   50  A    between atoms: _145  and  _146
REMARK   51  A    between atoms: _146  and  _147
REMARK   52  A    between atoms: _156  and  _158
REMARK   53  A    between atoms: _158  and  _159
REMARK   54  A    between atoms: _158  and  _161
REMARK   55  A    between atoms: _161  and  _162
REMARK   56  A    between atoms: _167  and  _168
REMARK   57  A    between atoms: _170  and  _172
REMARK   58  A    between atoms: _172  and  _173
REMARK   59  A    between atoms: _172  and  _175
REMARK   60  A    between atoms: _175  and  _176
REMARK   61  A    between atoms: _178  and  _180
REMARK   62  A    between atoms: _180  and  _181
REMARK   63  A    between atoms: _180  and  _183
REMARK   64  A    between atoms: _183  and  _184
REMARK   65  A    between atoms: _189  and  _190
REMARK   66  A    between atoms: _192  and  _194
REMARK   67  A    between atoms: _194  and  _195
REMARK   68  A    between atoms: _194  and  _197
REMARK   69  A    between atoms: _197  and  _198
REMARK   70  A    between atoms: _201  and  _203
REMARK   71  A    between atoms: _203  and  _204
REMARK   72  A    between atoms: _203  and  _206
REMARK   73  A    between atoms: _206  and  _207
REMARK   74  A    between atoms: _210  and  _212
REMARK   75  A    between atoms: _212  and  _213
REMARK   76  A    between atoms: _212  and  _215
REMARK   77  A    between atoms: _215  and  _216
REMARK   78  A    between atoms: _222  and  _224
REMARK   79  A    between atoms: _224  and  _225
REMARK   80  A    between atoms: _224  and  _227
REMARK   81  A    between atoms: _227  and  _228
REMARK   82  A    between atoms: _233  and  _234
REMARK   83  A    between atoms: _236  and  _238
REMARK   84  A    between atoms: _238  and  _239
REMARK   85  A    between atoms: _238  and  _241
REMARK   86  A    between atoms: _241  and  _242
REMARK   87  A    between atoms: _245  and  _247
REMARK   88  A    between atoms: _247  and  _248
REMARK   89  A    between atoms: _247  and  _250
REMARK   90  A    between atoms: _250  and  _251
REMARK   91  A    between atoms: _261  and  _263
REMARK   92  A    between atoms: _263  and  _264
REMARK   93  A    between atoms: _263  and  _266
REMARK   94  A    between atoms: _266  and  _267
REMARK   95  A    between atoms: _272  and  _274
REMARK   96  A    between atoms: _274  and  _275
REMARK   97  A    between atoms: _274  and  _277
REMARK   98  A    between atoms: _277  and  _278
REMARK   99  A    between atoms: _282  and  ZN_385
REMARK  100  A    between atoms: _283  and  _285
REMARK  101  A    between atoms: _285  and  _286
REMARK  102  A    between atoms: _285  and  _288
REMARK  103  A    between atoms: _288  and  _289
REMARK  104  A    between atoms: _292  and  _294
REMARK  105  A    between atoms: _294  and  _295
REMARK  106  A    between atoms: _297  and  _299
REMARK  107  A    between atoms: _299  and  _300
REMARK  108  A    between atoms: _299  and  _302
REMARK  109  A    between atoms: _302  and  _303
REMARK  110  A    between atoms: _306  and  _308
REMARK  111  A    between atoms: _308  and  _309
REMARK  112  A    between atoms: _308  and  _311
REMARK  113  A    between atoms: _311  and  _312
REMARK  114  A    between atoms: _315  and  _317
REMARK  115  A    between atoms: _317  and  _318
REMARK  116  A    between atoms: _321  and  _323
REMARK  117  A    between atoms: _323  and  _324
REMARK  118  A    between atoms: _323  and  _326
REMARK  119  A    between atoms: _326  and  _327
REMARK  120  A    between atoms: _332  and  _333
REMARK  121  A    between atoms: _335  and  _337
REMARK  122  A    between atoms: _337  and  _338
REMARK  123  A    between atoms: _337  and  _340
REMARK  124  A    between atoms: _340  and  _341
REMARK  125  A    between atoms: _344  and  _346
REMARK  126  A    between atoms: _346  and  _347
REMARK  127  A    between atoms: _346  and  _349
REMARK  128  A    between atoms: _349  and  _350
REMARK  129  A    between atoms: _350  and  _351
REMARK  130  A    between atoms: _354  and  _356
REMARK  131  A    between atoms: _356  and  _357
REMARK  132  A    between atoms: _356  and  _359
REMARK  133  A    between atoms: _359  and  _360
REMARK  134  A    between atoms: _360  and  _361
REMARK  135  A    between atoms: _361  and  _362
REMARK  136  A    between atoms: _371  and  _373
REMARK  137  A    between atoms: _373  and  _374
REMARK  138  A    between atoms: _376  and  _378
REMARK  139  A    between atoms: _378  and  _379
REMARK  140  A    between atoms: _378  and  _381
REMARK  141  A    between atoms: _381  and  _382
REMARK                            x       y       z     vdW  Elec       q    Type
REMARK                         _______ _______ _______ _____ _____    ______ ____
ROOT
ATOM      1  O   HOH     1      29.497  71.579  12.551  0.00  0.00    +0.000 OA
ENDROOT
TORSDOF 0
REMARK  Name = ../refined-set-2016/3d51/3d51_pocket.pdb
REMARK  141 active torsions:
REMARK  status: ('A' for Active; 'I' for Inactive)
REMARK    1  A    between atoms: _1  and  _3
REMARK    2  A    between atoms: _14  and  _17
REMARK    3  A    between atoms: _17  and  _18
REMARK    4  A    between atoms: _25  and  _26
REMARK    5  A    between atoms: _33  and  _34
REMARK    6  A    between atoms: _39  and  _41
REMARK    7  A    between atoms: _41  and  _42
REMARK    8  A    between atoms: _44  and  _46
REMARK    9  A    between atoms: _46  and  _47
REMARK   10  A    between atoms: _46  and  _49
REMARK   11  A    between atoms: _49  and  _50
REMARK   12  A    between atoms: _60  and  _62
REMARK   13  A    between atoms: _62  and  _63
REMARK   14  A    between atoms: _62  and  _65
REMARK   15  A    between atoms: _65  and  _66
REMARK   16  A    between atoms: _69  and  _71
REMARK   17  A    between atoms: _71  and  _72
REMARK   18  A    between atoms: _71  and  _74
REMARK   19  A    between atoms: _74  and  _75
REMARK   20  A    between atoms: _80  and  _81
REMARK   21  A    between atoms: _83  and  _85
REMARK   22  A    between atoms: _85  and  _86
REMARK   23  A    between atoms: _85  and  _88
REMARK   24  A    between atoms: _88  and  _89
REMARK   25  A    between atoms: _89  and  _90
REMARK   26  A    between atoms: _93  and  _95
REMARK   27  A    between atoms: _95  and  _96
REMARK   28  A    between atoms: _95  and  _98
REMARK   29  A    between atoms: _98  and  _99
REMARK   30  A    between atoms: _99  and  _100
REMARK   31  A    between atoms: _102  and  _104
REMARK   32  A    between atoms: _104  and  _105
REMARK   33  A    between atoms: _104  and  _107
REMARK   34  A    between atoms: _107  and  _108
REMARK   35  A    between atoms: _111  and  _113
REMARK   36  A    between atoms: _113  and  _114
REMARK   37  A    between atoms: _113  and  _116
REMARK   38  A    between atoms: _116  and  _117
REMARK   39  A    between atoms: _117  and  _119
REMARK   40  A    between atoms: _119  and  ZN_385
REMARK   41  A    between atoms: _121  and  _122
REMARK   42  A    between atoms: _127  and  _129
REMARK   43  A    between atoms: _129  and  _130
REMARK   44  A    between atoms: _129  and  _132
REMARK   45  A    between atoms: _132  and  _133
REMARK   46  A    between atoms: _139  and  _141
REMARK   47  A    between atoms: _141  and  _142
REMARK   48  A    between atoms: _141  and  _144
REMARK   49  A    between atoms: _144  and  _145
REMARK   50  A    between atoms: _145  and  _146
REMARK   51  A    between atoms: _146  and  _147
REMARK   52  A    between atoms: _156  and  _158
REMARK   53  A    between atoms: _158  and  _159
REMARK   54  A    between atoms: _158  and  _161
REMARK   55  A    between atoms: _161  and  _162
REMARK   56  A    between atoms: _167  and  _168
REMARK   57  A    between atoms: _170  and  _172
REMARK   58  A    between atoms: _172  and  _173
REMARK   59  A    between atoms: _172  and  _175
REMARK   60  A    between atoms: _175  and  _176
REMARK   61  A    between atoms: _178  and  _180
REMARK   62  A    between atoms: _180  and  _181
REMARK   63  A    between atoms: _180  and  _183
REMARK   64  A    between atoms: _183  and  _184
REMARK   65  A    between atoms: _189  and  _190
REMARK   66  A    between atoms: _192  and  _194
REMARK   67  A    between atoms: _194  and  _195
REMARK   68  A    between atoms: _194  and  _197
REMARK   69  A    between atoms: _197  and  _198
REMARK   70  A    between atoms: _201  and  _203
REMARK   71  A    between atoms: _203  and  _204
REMARK   72  A    between atoms: _203  and  _206
REMARK   73  A    between atoms: _206  and  _207
REMARK   74  A    between atoms: _210  and  _212
REMARK   75  A    between atoms: _212  and  _213
REMARK   76  A    between atoms: _212  and  _215
REMARK   77  A    between atoms: _215  and  _216
REMARK   78  A    between atoms: _222  and  _224
REMARK   79  A    between atoms: _224  and  _225
REMARK   80  A    between atoms: _224  and  _227
REMARK   81  A    between atoms: _227  and  _228
REMARK   82  A    between atoms: _233  and  _234
REMARK   83  A    between atoms: _236  and  _238
REMARK   84  A    between atoms: _238  and  _239
REMARK   85  A    between atoms: _238  and  _241
REMARK   86  A    between atoms: _241  and  _242
REMARK   87  A    between atoms: _245  and  _247
REMARK   88  A    between atoms: _247  and  _248
REMARK   89  A    between atoms: _247  and  _250
REMARK   90  A    between atoms: _250  and  _251
REMARK   91  A    between atoms: _261  and  _263
REMARK   92  A    between atoms: _263  and  _264
REMARK   93  A    between atoms: _263  and  _266
REMARK   94  A    between atoms: _266  and  _267
REMARK   95  A    between atoms: _272  and  _274
REMARK   96  A    between atoms: _274  and  _275
REMARK   97  A    between atoms: _274  and  _277
REMARK   98  A    between atoms: _277  and  _278
REMARK   99  A    between atoms: _282  and  ZN_385
REMARK  100  A    between atoms: _283  and  _285
REMARK  101  A    between atoms: _285  and  _286
REMARK  102  A    between atoms: _285  and  _288
REMARK  103  A    between atoms: _288  and  _289
REMARK  104  A    between atoms: _292  and  _294
REMARK  105  A    between atoms: _294  and  _295
REMARK  106  A    between atoms: _297  and  _299
REMARK  107  A    between atoms: _299  and  _300
REMARK  108  A    between atoms: _299  and  _302
REMARK  109  A    between atoms: _302  and  _303
REMARK  110  A    between atoms: _306  and  _308
REMARK  111  A    between atoms: _308  and  _309
REMARK  112  A    between atoms: _308  and  _311
REMARK  113  A    between atoms: _311  and  _312
REMARK  114  A    between atoms: _315  and  _317
REMARK  115  A    between atoms: _317  and  _318
REMARK  116  A    between atoms: _321  and  _323
REMARK  117  A    between atoms: _323  and  _324
REMARK  118  A    between atoms: _323  and  _326
REMARK  119  A    between atoms: _326  and  _327
REMARK  120  A    between atoms: _332  and  _333
REMARK  121  A    between atoms: _335  and  _337
REMARK  122  A    between atoms: _337  and  _338
REMARK  123  A    between atoms: _337  and  _340
REMARK  124  A    between atoms: _340  and  _341
REMARK  125  A    between atoms: _344  and  _346
REMARK  126  A    between atoms: _346  and  _347
REMARK  127  A    between atoms: _346  and  _349
REMARK  128  A    between atoms: _349  and  _350
REMARK  129  A    between atoms: _350  and  _351
REMARK  130  A    between atoms: _354  and  _356
REMARK  131  A    between atoms: _356  and  _357
REMARK  132  A    between atoms: _356  and  _359
REMARK  133  A    between atoms: _359  and  _360
REMARK  134  A    between atoms: _360  and  _361
REMARK  135  A    between atoms: _361  and  _362
REMARK  136  A    between atoms: _371  and  _373
REMARK  137  A    between atoms: _373  and  _374
REMARK  138  A    between atoms: _376  and  _378
REMARK  139  A    between atoms: _378  and  _379
REMARK  140  A    between atoms: _378  and  _381
REMARK  141  A    between atoms: _381  and  _382
REMARK                            x       y       z     vdW  Elec       q    Type
REMARK                         _______ _______ _______ _____ _____    ______ ____
ROOT
ATOM      1  O   HOH     1      28.077  69.282  12.738  0.00  0.00    +0.000 OA
ENDROOT
TORSDOF 0
REMARK  Name = ../refined-set-2016/3d51/3d51_pocket.pdb
REMARK  141 active torsions:
REMARK  status: ('A' for Active; 'I' for Inactive)
REMARK    1  A    between atoms: _1  and  _3
REMARK    2  A    between atoms: _14  and  _17
REMARK    3  A    between atoms: _17  and  _18
REMARK    4  A    between atoms: _25  and  _26
REMARK    5  A    between atoms: _33  and  _34
REMARK    6  A    between atoms: _39  and  _41
REMARK    7  A    between atoms: _41  and  _42
REMARK    8  A    between atoms: _44  and  _46
REMARK    9  A    between atoms: _46  and  _47
REMARK   10  A    between atoms: _46  and  _49
REMARK   11  A    between atoms: _49  and  _50
REMARK   12  A    between atoms: _60  and  _62
REMARK   13  A    between atoms: _62  and  _63
REMARK   14  A    between atoms: _62  and  _65
REMARK   15  A    between atoms: _65  and  _66
REMARK   16  A    between atoms: _69  and  _71
REMARK   17  A    between atoms: _71  and  _72
REMARK   18  A    between atoms: _71  and  _74
REMARK   19  A    between atoms: _74  and  _75
REMARK   20  A    between atoms: _80  and  _81
REMARK   21  A    between atoms: _83  and  _85
REMARK   22  A    between atoms: _85  and  _86
REMARK   23  A    between atoms: _85  and  _88
REMARK   24  A    between atoms: _88  and  _89
REMARK   25  A    between atoms: _89  and  _90
REMARK   26  A    between atoms: _93  and  _95
REMARK   27  A    between atoms: _95  and  _96
REMARK   28  A    between atoms: _95  and  _98
REMARK   29  A    between atoms: _98  and  _99
REMARK   30  A    between atoms: _99  and  _100
REMARK   31  A    between atoms: _102  and  _104
REMARK   32  A    between atoms: _104  and  _105
REMARK   33  A    between atoms: _104  and  _107
REMARK   34  A    between atoms: _107  and  _108
REMARK   35  A    between atoms: _111  and  _113
REMARK   36  A    between atoms: _113  and  _114
REMARK   37  A    between atoms: _113  and  _116
REMARK   38  A    between atoms: _116  and  _117
REMARK   39  A    between atoms: _117  and  _119
REMARK   40  A    between atoms: _119  and  ZN_385
REMARK   41  A    between atoms: _121  and  _122
REMARK   42  A    between atoms: _127  and  _129
REMARK   43  A    between atoms: _129  and  _130
REMARK   44  A    between atoms: _129  and  _132
REMARK   45  A    between atoms: _132  and  _133
REMARK   46  A    between atoms: _139  and  _141
REMARK   47  A    between atoms: _141  and  _142
REMARK   48  A    between atoms: _141  and  _144
REMARK   49  A    between atoms: _144  and  _145
REMARK   50  A    between atoms: _145  and  _146
REMARK   51  A    between atoms: _146  and  _147
REMARK   52  A    between atoms: _156  and  _158
REMARK   53  A    between atoms: _158  and  _159
REMARK   54  A    between atoms: _158  and  _161
REMARK   55  A    between atoms: _161  and  _162
REMARK   56  A    between atoms: _167  and  _168
REMARK   57  A    between atoms: _170  and  _172
REMARK   58  A    between atoms: _172  and  _173
REMARK   59  A    between atoms: _172  and  _175
REMARK   60  A    between atoms: _175  and  _176
REMARK   61  A    between atoms: _178  and  _180
REMARK   62  A    between atoms: _180  and  _181
REMARK   63  A    between atoms: _180  and  _183
REMARK   64  A    between atoms: _183  and  _184
REMARK   65  A    between atoms: _189  and  _190
REMARK   66  A    between atoms: _192  and  _194
REMARK   67  A    between atoms: _194  and  _195
REMARK   68  A    between atoms: _194  and  _197
REMARK   69  A    between atoms: _197  and  _198
REMARK   70  A    between atoms: _201  and  _203
REMARK   71  A    between atoms: _203  and  _204
REMARK   72  A    between atoms: _203  and  _206
REMARK   73  A    between atoms: _206  and  _207
REMARK   74  A    between atoms: _210  and  _212
REMARK   75  A    between atoms: _212  and  _213
REMARK   76  A    between atoms: _212  and  _215
REMARK   77  A    between atoms: _215  and  _216
REMARK   78  A    between atoms: _222  and  _224
REMARK   79  A    between atoms: _224  and  _225
REMARK   80  A    between atoms: _224  and  _227
REMARK   81  A    between atoms: _227  and  _228
REMARK   82  A    between atoms: _233  and  _234
REMARK   83  A    between atoms: _236  and  _238
REMARK   84  A    between atoms: _238  and  _239
REMARK   85  A    between atoms: _238  and  _241
REMARK   86  A    between atoms: _241  and  _242
REMARK   87  A    between atoms: _245  and  _247
REMARK   88  A    between atoms: _247  and  _248
REMARK   89  A    between atoms: _247  and  _250
REMARK   90  A    between atoms: _250  and  _251
REMARK   91  A    between atoms: _261  and  _263
REMARK   92  A    between atoms: _263  and  _264
REMARK   93  A    between atoms: _263  and  _266
REMARK   94  A    between atoms: _266  and  _267
REMARK   95  A    between atoms: _272  and  _274
REMARK   96  A    between atoms: _274  and  _275
REMARK   97  A    between atoms: _274  and  _277
REMARK   98  A    between atoms: _277  and  _278
REMARK   99  A    between atoms: _282  and  ZN_385
REMARK  100  A    between atoms: _283  and  _285
REMARK  101  A    between atoms: _285  and  _286
REMARK  102  A    between atoms: _285  and  _288
REMARK  103  A    between atoms: _288  and  _289
REMARK  104  A    between atoms: _292  and  _294
REMARK  105  A    between atoms: _294  and  _295
REMARK  106  A    between atoms: _297  and  _299
REMARK  107  A    between atoms: _299  and  _300
REMARK  108  A    between atoms: _299  and  _302
REMARK  109  A    between atoms: _302  and  _303
REMARK  110  A    between atoms: _306  and  _308
REMARK  111  A    between atoms: _308  and  _309
REMARK  112  A    between atoms: _308  and  _311
REMARK  113  A    between atoms: _311  and  _312
REMARK  114  A    between atoms: _315  and  _317
REMARK  115  A    between atoms: _317  and  _318
REMARK  116  A    between atoms: _321  and  _323
REMARK  117  A    between atoms: _323  and  _324
REMARK  118  A    between atoms: _323  and  _326
REMARK  119  A    between atoms: _326  and  _327
REMARK  120  A    between atoms: _332  and  _333
REMARK  121  A    between atoms: _335  and  _337
REMARK  122  A    between atoms: _337  and  _338
REMARK  123  A    between atoms: _337  and  _340
REMARK  124  A    between atoms: _340  and  _341
REMARK  125  A    between atoms: _344  and  _346
REMARK  126  A    between atoms: _346  and  _347
REMARK  127  A    between atoms: _346  and  _349
REMARK  128  A    between atoms: _349  and  _350
REMARK  129  A    between atoms: _350  and  _351
REMARK  130  A    between atoms: _354  and  _356
REMARK  131  A    between atoms: _356  and  _357
REMARK  132  A    between atoms: _356  and  _359
REMARK  133  A    between atoms: _359  and  _360
REMARK  134  A    between atoms: _360  and  _361
REMARK  135  A    between atoms: _361  and  _362
REMARK  136  A    between atoms: _371  and  _373
REMARK  137  A    between atoms: _373  and  _374
REMARK  138  A    between atoms: _376  and  _378
REMARK  139  A    between atoms: _378  and  _379
REMARK  140  A    between atoms: _378  and  _381
REMARK  141  A    between atoms: _381  and  _382
REMARK                            x       y       z     vdW  Elec       q    Type
REMARK                         _______ _______ _______ _____ _____    ______ ____
ROOT
ATOM      1  O   HOH     1      30.872  67.839  14.302  0.00  0.00    +0.000 OA
ENDROOT
TORSDOF 0
REMARK  Name = ../refined-set-2016/3d51/3d51_pocket.pdb
REMARK  141 active torsions:
REMARK  status: ('A' for Active; 'I' for Inactive)
REMARK    1  A    between atoms: _1  and  _3
REMARK    2  A    between atoms: _14  and  _17
REMARK    3  A    between atoms: _17  and  _18
REMARK    4  A    between atoms: _25  and  _26
REMARK    5  A    between atoms: _33  and  _34
REMARK    6  A    between atoms: _39  and  _41
REMARK    7  A    between atoms: _41  and  _42
REMARK    8  A    between atoms: _44  and  _46
REMARK    9  A    between atoms: _46  and  _47
REMARK   10  A    between atoms: _46  and  _49
REMARK   11  A    between atoms: _49  and  _50
REMARK   12  A    between atoms: _60  and  _62
REMARK   13  A    between atoms: _62  and  _63
REMARK   14  A    between atoms: _62  and  _65
REMARK   15  A    between atoms: _65  and  _66
REMARK   16  A    between atoms: _69  and  _71
REMARK   17  A    between atoms: _71  and  _72
REMARK   18  A    between atoms: _71  and  _74
REMARK   19  A    between atoms: _74  and  _75
REMARK   20  A    between atoms: _80  and  _81
REMARK   21  A    between atoms: _83  and  _85
REMARK   22  A    between atoms: _85  and  _86
REMARK   23  A    between atoms: _85  and  _88
REMARK   24  A    between atoms: _88  and  _89
REMARK   25  A    between atoms: _89  and  _90
REMARK   26  A    between atoms: _93  and  _95
REMARK   27  A    between atoms: _95  and  _96
REMARK   28  A    between atoms: _95  and  _98
REMARK   29  A    between atoms: _98  and  _99
REMARK   30  A    between atoms: _99  and  _100
REMARK   31  A    between atoms: _102  and  _104
REMARK   32  A    between atoms: _104  and  _105
REMARK   33  A    between atoms: _104  and  _107
REMARK   34  A    between atoms: _107  and  _108
REMARK   35  A    between atoms: _111  and  _113
REMARK   36  A    between atoms: _113  and  _114
REMARK   37  A    between atoms: _113  and  _116
REMARK   38  A    between atoms: _116  and  _117
REMARK   39  A    between atoms: _117  and  _119
REMARK   40  A    between atoms: _119  and  ZN_385
REMARK   41  A    between atoms: _121  and  _122
REMARK   42  A    between atoms: _127  and  _129
REMARK   43  A    between atoms: _129  and  _130
REMARK   44  A    between atoms: _129  and  _132
REMARK   45  A    between atoms: _132  and  _133
REMARK   46  A    between atoms: _139  and  _141
REMARK   47  A    between atoms: _141  and  _142
REMARK   48  A    between atoms: _141  and  _144
REMARK   49  A    between atoms: _144  and  _145
REMARK   50  A    between atoms: _145  and  _146
REMARK   51  A    between atoms: _146  and  _147
REMARK   52  A    between atoms: _156  and  _158
REMARK   53  A    between atoms: _158  and  _159
REMARK   54  A    between atoms: _158  and  _161
REMARK   55  A    between atoms: _161  and  _162
REMARK   56  A    between atoms: _167  and  _168
REMARK   57  A    between atoms: _170  and  _172
REMARK   58  A    between atoms: _172  and  _173
REMARK   59  A    between atoms: _172  and  _175
REMARK   60  A    between atoms: _175  and  _176
REMARK   61  A    between atoms: _178  and  _180
REMARK   62  A    between atoms: _180  and  _181
REMARK   63  A    between atoms: _180  and  _183
REMARK   64  A    between atoms: _183  and  _184
REMARK   65  A    between atoms: _189  and  _190
REMARK   66  A    between atoms: _192  and  _194
REMARK   67  A    between atoms: _194  and  _195
REMARK   68  A    between atoms: _194  and  _197
REMARK   69  A    between atoms: _197  and  _198
REMARK   70  A    between atoms: _201  and  _203
REMARK   71  A    between atoms: _203  and  _204
REMARK   72  A    between atoms: _203  and  _206
REMARK   73  A    between atoms: _206  and  _207
REMARK   74  A    between atoms: _210  and  _212
REMARK   75  A    between atoms: _212  and  _213
REMARK   76  A    between atoms: _212  and  _215
REMARK   77  A    between atoms: _215  and  _216
REMARK   78  A    between atoms: _222  and  _224
REMARK   79  A    between atoms: _224  and  _225
REMARK   80  A    between atoms: _224  and  _227
REMARK   81  A    between atoms: _227  and  _228
REMARK   82  A    between atoms: _233  and  _234
REMARK   83  A    between atoms: _236  and  _238
REMARK   84  A    between atoms: _238  and  _239
REMARK   85  A    between atoms: _238  and  _241
REMARK   86  A    between atoms: _241  and  _242
REMARK   87  A    between atoms: _245  and  _247
REMARK   88  A    between atoms: _247  and  _248
REMARK   89  A    between atoms: _247  and  _250
REMARK   90  A    between atoms: _250  and  _251
REMARK   91  A    between atoms: _261  and  _263
REMARK   92  A    between atoms: _263  and  _264
REMARK   93  A    between atoms: _263  and  _266
REMARK   94  A    between atoms: _266  and  _267
REMARK   95  A    between atoms: _272  and  _274
REMARK   96  A    between atoms: _274  and  _275
REMARK   97  A    between atoms: _274  and  _277
REMARK   98  A    between atoms: _277  and  _278
REMARK   99  A    between atoms: _282  and  ZN_385
REMARK  100  A    between atoms: _283  and  _285
REMARK  101  A    between atoms: _285  and  _286
REMARK  102  A    between atoms: _285  and  _288
REMARK  103  A    between atoms: _288  and  _289
REMARK  104  A    between atoms: _292  and  _294
REMARK  105  A    between atoms: _294  and  _295
REMARK  106  A    between atoms: _297  and  _299
REMARK  107  A    between atoms: _299  and  _300
REMARK  108  A    between atoms: _299  and  _302
REMARK  109  A    between atoms: _302  and  _303
REMARK  110  A    between atoms: _306  and  _308
REMARK  111  A    between atoms: _308  and  _309
REMARK  112  A    between atoms: _308  and  _311
REMARK  113  A    between atoms: _311  and  _312
REMARK  114  A    between atoms: _315  and  _317
REMARK  115  A    between atoms: _317  and  _318
REMARK  116  A    between atoms: _321  and  _323
REMARK  117  A    between atoms: _323  and  _324
REMARK  118  A    between atoms: _323  and  _326
REMARK  119  A    between atoms: _326  and  _327
REMARK  120  A    between atoms: _332  and  _333
REMARK  121  A    between atoms: _335  and  _337
REMARK  122  A    between atoms: _337  and  _338
REMARK  123  A    between atoms: _337  and  _340
REMARK  124  A    between atoms: _340  and  _341
REMARK  125  A    between atoms: _344  and  _346
REMARK  126  A    between atoms: _346  and  _347
REMARK  127  A    between atoms: _346  and  _349
REMARK  128  A    between atoms: _349  and  _350
REMARK  129  A    between atoms: _350  and  _351
REMARK  130  A    between atoms: _354  and  _356
REMARK  131  A    between atoms: _356  and  _357
REMARK  132  A    between atoms: _356  and  _359
REMARK  133  A    between atoms: _359  and  _360
REMARK  134  A    between atoms: _360  and  _361
REMARK  135  A    between atoms: _361  and  _362
REMARK  136  A    between atoms: _371  and  _373
REMARK  137  A    between atoms: _373  and  _374
REMARK  138  A    between atoms: _376  and  _378
REMARK  139  A    between atoms: _378  and  _379
REMARK  140  A    between atoms: _378  and  _381
REMARK  141  A    between atoms: _381  and  _382
REMARK                            x       y       z     vdW  Elec       q    Type
REMARK                         _______ _______ _______ _____ _____    ______ ____
ROOT
ATOM      1  O   HOH     1      29.165  66.424  15.780  0.00  0.00    +0.000 OA
ENDROOT
TORSDOF 0
REMARK  Name = ../refined-set-2016/3d51/3d51_pocket.pdb
REMARK  141 active torsions:
REMARK  status: ('A' for Active; 'I' for Inactive)
REMARK    1  A    between atoms: _1  and  _3
REMARK    2  A    between atoms: _14  and  _17
REMARK    3  A    between atoms: _17  and  _18
REMARK    4  A    between atoms: _25  and  _26
REMARK    5  A    between atoms: _33  and  _34
REMARK    6  A    between atoms: _39  and  _41
REMARK    7  A    between atoms: _41  and  _42
REMARK    8  A    between atoms: _44  and  _46
REMARK    9  A    between atoms: _46  and  _47
REMARK   10  A    between atoms: _46  and  _49
REMARK   11  A    between atoms: _49  and  _50
REMARK   12  A    between atoms: _60  and  _62
REMARK   13  A    between atoms: _62  and  _63
REMARK   14  A    between atoms: _62  and  _65
REMARK   15  A    between atoms: _65  and  _66
REMARK   16  A    between atoms: _69  and  _71
REMARK   17  A    between atoms: _71  and  _72
REMARK   18  A    between atoms: _71  and  _74
REMARK   19  A    between atoms: _74  and  _75
REMARK   20  A    between atoms: _80  and  _81
REMARK   21  A    between atoms: _83  and  _85
REMARK   22  A    between atoms: _85  and  _86
REMARK   23  A    between atoms: _85  and  _88
REMARK   24  A    between atoms: _88  and  _89
REMARK   25  A    between atoms: _89  and  _90
REMARK   26  A    between atoms: _93  and  _95
REMARK   27  A    between atoms: _95  and  _96
REMARK   28  A    between atoms: _95  and  _98
REMARK   29  A    between atoms: _98  and  _99
REMARK   30  A    between atoms: _99  and  _100
REMARK   31  A    between atoms: _102  and  _104
REMARK   32  A    between atoms: _104  and  _105
REMARK   33  A    between atoms: _104  and  _107
REMARK   34  A    between atoms: _107  and  _108
REMARK   35  A    between atoms: _111  and  _113
REMARK   36  A    between atoms: _113  and  _114
REMARK   37  A    between atoms: _113  and  _116
REMARK   38  A    between atoms: _116  and  _117
REMARK   39  A    between atoms: _117  and  _119
REMARK   40  A    between atoms: _119  and  ZN_385
REMARK   41  A    between atoms: _121  and  _122
REMARK   42  A    between atoms: _127  and  _129
REMARK   43  A    between atoms: _129  and  _130
REMARK   44  A    between atoms: _129  and  _132
REMARK   45  A    between atoms: _132  and  _133
REMARK   46  A    between atoms: _139  and  _141
REMARK   47  A    between atoms: _141  and  _142
REMARK   48  A    between atoms: _141  and  _144
REMARK   49  A    between atoms: _144  and  _145
REMARK   50  A    between atoms: _145  and  _146
REMARK   51  A    between atoms: _146  and  _147
REMARK   52  A    between atoms: _156  and  _158
REMARK   53  A    between atoms: _158  and  _159
REMARK   54  A    between atoms: _158  and  _161
REMARK   55  A    between atoms: _161  and  _162
REMARK   56  A    between atoms: _167  and  _168
REMARK   57  A    between atoms: _170  and  _172
REMARK   58  A    between atoms: _172  and  _173
REMARK   59  A    between atoms: _172  and  _175
REMARK   60  A    between atoms: _175  and  _176
REMARK   61  A    between atoms: _178  and  _180
REMARK   62  A    between atoms: _180  and  _181
REMARK   63  A    between atoms: _180  and  _183
REMARK   64  A    between atoms: _183  and  _184
REMARK   65  A    between atoms: _189  and  _190
REMARK   66  A    between atoms: _192  and  _194
REMARK   67  A    between atoms: _194  and  _195
REMARK   68  A    between atoms: _194  and  _197
REMARK   69  A    between atoms: _197  and  _198
REMARK   70  A    between atoms: _201  and  _203
REMARK   71  A    between atoms: _203  and  _204
REMARK   72  A    between atoms: _203  and  _206
REMARK   73  A    between atoms: _206  and  _207
REMARK   74  A    between atoms: _210  and  _212
REMARK   75  A    between atoms: _212  and  _213
REMARK   76  A    between atoms: _212  and  _215
REMARK   77  A    between atoms: _215  and  _216
REMARK   78  A    between atoms: _222  and  _224
REMARK   79  A    between atoms: _224  and  _225
REMARK   80  A    between atoms: _224  and  _227
REMARK   81  A    between atoms: _227  and  _228
REMARK   82  A    between atoms: _233  and  _234
REMARK   83  A    between atoms: _236  and  _238
REMARK   84  A    between atoms: _238  and  _239
REMARK   85  A    between atoms: _238  and  _241
REMARK   86  A    between atoms: _241  and  _242
REMARK   87  A    between atoms: _245  and  _247
REMARK   88  A    between atoms: _247  and  _248
REMARK   89  A    between atoms: _247  and  _250
REMARK   90  A    between atoms: _250  and  _251
REMARK   91  A    between atoms: _261  and  _263
REMARK   92  A    between atoms: _263  and  _264
REMARK   93  A    between atoms: _263  and  _266
REMARK   94  A    between atoms: _266  and  _267
REMARK   95  A    between atoms: _272  and  _274
REMARK   96  A    between atoms: _274  and  _275
REMARK   97  A    between atoms: _274  and  _277
REMARK   98  A    between atoms: _277  and  _278
REMARK   99  A    between atoms: _282  and  ZN_385
REMARK  100  A    between atoms: _283  and  _285
REMARK  101  A    between atoms: _285  and  _286
REMARK  102  A    between atoms: _285  and  _288
REMARK  103  A    between atoms: _288  and  _289
REMARK  104  A    between atoms: _292  and  _294
REMARK  105  A    between atoms: _294  and  _295
REMARK  106  A    between atoms: _297  and  _299
REMARK  107  A    between atoms: _299  and  _300
REMARK  108  A    between atoms: _299  and  _302
REMARK  109  A    between atoms: _302  and  _303
REMARK  110  A    between atoms: _306  and  _308
REMARK  111  A    between atoms: _308  and  _309
REMARK  112  A    between atoms: _308  and  _311
REMARK  113  A    between atoms: _311  and  _312
REMARK  114  A    between atoms: _315  and  _317
REMARK  115  A    between atoms: _317  and  _318
REMARK  116  A    between atoms: _321  and  _323
REMARK  117  A    between atoms: _323  and  _324
REMARK  118  A    between atoms: _323  and  _326
REMARK  119  A    between atoms: _326  and  _327
REMARK  120  A    between atoms: _332  and  _333
REMARK  121  A    between atoms: _335  and  _337
REMARK  122  A    between atoms: _337  and  _338
REMARK  123  A    between atoms: _337  and  _340
REMARK  124  A    between atoms: _340  and  _341
REMARK  125  A    between atoms: _344  and  _346
REMARK  126  A    between atoms: _346  and  _347
REMARK  127  A    between atoms: _346  and  _349
REMARK  128  A    between atoms: _349  and  _350
REMARK  129  A    between atoms: _350  and  _351
REMARK  130  A    between atoms: _354  and  _356
REMARK  131  A    between atoms: _356  and  _357
REMARK  132  A    between atoms: _356  and  _359
REMARK  133  A    between atoms: _359  and  _360
REMARK  134  A    between atoms: _360  and  _361
REMARK  135  A    between atoms: _361  and  _362
REMARK  136  A    between atoms: _371  and  _373
REMARK  137  A    between atoms: _373  and  _374
REMARK  138  A    between atoms: _376  and  _378
REMARK  139  A    between atoms: _378  and  _379
REMARK  140  A    between atoms: _378  and  _381
REMARK  141  A    between atoms: _381  and  _382
REMARK                            x       y       z     vdW  Elec       q    Type
REMARK                         _______ _______ _______ _____ _____    ______ ____
ROOT
ATOM      1  O   HOH     1      28.354  64.126  14.709  0.00  0.00    +0.000 OA
ENDROOT
TORSDOF 0
REMARK  Name = ../refined-set-2016/3d51/3d51_pocket.pdb
REMARK  141 active torsions:
REMARK  status: ('A' for Active; 'I' for Inactive)
REMARK    1  A    between atoms: _1  and  _3
REMARK    2  A    between atoms: _14  and  _17
REMARK    3  A    between atoms: _17  and  _18
REMARK    4  A    between atoms: _25  and  _26
REMARK    5  A    between atoms: _33  and  _34
REMARK    6  A    between atoms: _39  and  _41
REMARK    7  A    between atoms: _41  and  _42
REMARK    8  A    between atoms: _44  and  _46
REMARK    9  A    between atoms: _46  and  _47
REMARK   10  A    between atoms: _46  and  _49
REMARK   11  A    between atoms: _49  and  _50
REMARK   12  A    between atoms: _60  and  _62
REMARK   13  A    between atoms: _62  and  _63
REMARK   14  A    between atoms: _62  and  _65
REMARK   15  A    between atoms: _65  and  _66
REMARK   16  A    between atoms: _69  and  _71
REMARK   17  A    between atoms: _71  and  _72
REMARK   18  A    between atoms: _71  and  _74
REMARK   19  A    between atoms: _74  and  _75
REMARK   20  A    between atoms: _80  and  _81
REMARK   21  A    between atoms: _83  and  _85
REMARK   22  A    between atoms: _85  and  _86
REMARK   23  A    between atoms: _85  and  _88
REMARK   24  A    between atoms: _88  and  _89
REMARK   25  A    between atoms: _89  and  _90
REMARK   26  A    between atoms: _93  and  _95
REMARK   27  A    between atoms: _95  and  _96
REMARK   28  A    between atoms: _95  and  _98
REMARK   29  A    between atoms: _98  and  _99
REMARK   30  A    between atoms: _99  and  _100
REMARK   31  A    between atoms: _102  and  _104
REMARK   32  A    between atoms: _104  and  _105
REMARK   33  A    between atoms: _104  and  _107
REMARK   34  A    between atoms: _107  and  _108
REMARK   35  A    between atoms: _111  and  _113
REMARK   36  A    between atoms: _113  and  _114
REMARK   37  A    between atoms: _113  and  _116
REMARK   38  A    between atoms: _116  and  _117
REMARK   39  A    between atoms: _117  and  _119
REMARK   40  A    between atoms: _119  and  ZN_385
REMARK   41  A    between atoms: _121  and  _122
REMARK   42  A    between atoms: _127  and  _129
REMARK   43  A    between atoms: _129  and  _130
REMARK   44  A    between atoms: _129  and  _132
REMARK   45  A    between atoms: _132  and  _133
REMARK   46  A    between atoms: _139  and  _141
REMARK   47  A    between atoms: _141  and  _142
REMARK   48  A    between atoms: _141  and  _144
REMARK   49  A    between atoms: _144  and  _145
REMARK   50  A    between atoms: _145  and  _146
REMARK   51  A    between atoms: _146  and  _147
REMARK   52  A    between atoms: _156  and  _158
REMARK   53  A    between atoms: _158  and  _159
REMARK   54  A    between atoms: _158  and  _161
REMARK   55  A    between atoms: _161  and  _162
REMARK   56  A    between atoms: _167  and  _168
REMARK   57  A    between atoms: _170  and  _172
REMARK   58  A    between atoms: _172  and  _173
REMARK   59  A    between atoms: _172  and  _175
REMARK   60  A    between atoms: _175  and  _176
REMARK   61  A    between atoms: _178  and  _180
REMARK   62  A    between atoms: _180  and  _181
REMARK   63  A    between atoms: _180  and  _183
REMARK   64  A    between atoms: _183  and  _184
REMARK   65  A    between atoms: _189  and  _190
REMARK   66  A    between atoms: _192  and  _194
REMARK   67  A    between atoms: _194  and  _195
REMARK   68  A    between atoms: _194  and  _197
REMARK   69  A    between atoms: _197  and  _198
REMARK   70  A    between atoms: _201  and  _203
REMARK   71  A    between atoms: _203  and  _204
REMARK   72  A    between atoms: _203  and  _206
REMARK   73  A    between atoms: _206  and  _207
REMARK   74  A    between atoms: _210  and  _212
REMARK   75  A    between atoms: _212  and  _213
REMARK   76  A    between atoms: _212  and  _215
REMARK   77  A    between atoms: _215  and  _216
REMARK   78  A    between atoms: _222  and  _224
REMARK   79  A    between atoms: _224  and  _225
REMARK   80  A    between atoms: _224  and  _227
REMARK   81  A    between atoms: _227  and  _228
REMARK   82  A    between atoms: _233  and  _234
REMARK   83  A    between atoms: _236  and  _238
REMARK   84  A    between atoms: _238  and  _239
REMARK   85  A    between atoms: _238  and  _241
REMARK   86  A    between atoms: _241  and  _242
REMARK   87  A    between atoms: _245  and  _247
REMARK   88  A    between atoms: _247  and  _248
REMARK   89  A    between atoms: _247  and  _250
REMARK   90  A    between atoms: _250  and  _251
REMARK   91  A    between atoms: _261  and  _263
REMARK   92  A    between atoms: _263  and  _264
REMARK   93  A    between atoms: _263  and  _266
REMARK   94  A    between atoms: _266  and  _267
REMARK   95  A    between atoms: _272  and  _274
REMARK   96  A    between atoms: _274  and  _275
REMARK   97  A    between atoms: _274  and  _277
REMARK   98  A    between atoms: _277  and  _278
REMARK   99  A    between atoms: _282  and  ZN_385
REMARK  100  A    between atoms: _283  and  _285
REMARK  101  A    between atoms: _285  and  _286
REMARK  102  A    between atoms: _285  and  _288
REMARK  103  A    between atoms: _288  and  _289
REMARK  104  A    between atoms: _292  and  _294
REMARK  105  A    between atoms: _294  and  _295
REMARK  106  A    between atoms: _297  and  _299
REMARK  107  A    between atoms: _299  and  _300
REMARK  108  A    between atoms: _299  and  _302
REMARK  109  A    between atoms: _302  and  _303
REMARK  110  A    between atoms: _306  and  _308
REMARK  111  A    between atoms: _308  and  _309
REMARK  112  A    between atoms: _308  and  _311
REMARK  113  A    between atoms: _311  and  _312
REMARK  114  A    between atoms: _315  and  _317
REMARK  115  A    between atoms: _317  and  _318
REMARK  116  A    between atoms: _321  and  _323
REMARK  117  A    between atoms: _323  and  _324
REMARK  118  A    between atoms: _323  and  _326
REMARK  119  A    between atoms: _326  and  _327
REMARK  120  A    between atoms: _332  and  _333
REMARK  121  A    between atoms: _335  and  _337
REMARK  122  A    between atoms: _337  and  _338
REMARK  123  A    between atoms: _337  and  _340
REMARK  124  A    between atoms: _340  and  _341
REMARK  125  A    between atoms: _344  and  _346
REMARK  126  A    between atoms: _346  and  _347
REMARK  127  A    between atoms: _346  and  _349
REMARK  128  A    between atoms: _349  and  _350
REMARK  129  A    between atoms: _350  and  _351
REMARK  130  A    between atoms: _354  and  _356
REMARK  131  A    between atoms: _356  and  _357
REMARK  132  A    between atoms: _356  and  _359
REMARK  133  A    between atoms: _359  and  _360
REMARK  134  A    between atoms: _360  and  _361
REMARK  135  A    between atoms: _361  and  _362
REMARK  136  A    between atoms: _371  and  _373
REMARK  137  A    between atoms: _373  and  _374
REMARK  138  A    between atoms: _376  and  _378
REMARK  139  A    between atoms: _378  and  _379
REMARK  140  A    between atoms: _378  and  _381
REMARK  141  A    between atoms: _381  and  _382
REMARK                            x       y       z     vdW  Elec       q    Type
REMARK                         _______ _______ _______ _____ _____    ______ ____
ROOT
ATOM      1  O   HOH     1      26.509  63.253  16.957  0.00  0.00    +0.000 OA
ENDROOT
TORSDOF 0
REMARK  Name = ../refined-set-2016/3d51/3d51_pocket.pdb
REMARK  141 active torsions:
REMARK  status: ('A' for Active; 'I' for Inactive)
REMARK    1  A    between atoms: _1  and  _3
REMARK    2  A    between atoms: _14  and  _17
REMARK    3  A    between atoms: _17  and  _18
REMARK    4  A    between atoms: _25  and  _26
REMARK    5  A    between atoms: _33  and  _34
REMARK    6  A    between atoms: _39  and  _41
REMARK    7  A    between atoms: _41  and  _42
REMARK    8  A    between atoms: _44  and  _46
REMARK    9  A    between atoms: _46  and  _47
REMARK   10  A    between atoms: _46  and  _49
REMARK   11  A    between atoms: _49  and  _50
REMARK   12  A    between atoms: _60  and  _62
REMARK   13  A    between atoms: _62  and  _63
REMARK   14  A    between atoms: _62  and  _65
REMARK   15  A    between atoms: _65  and  _66
REMARK   16  A    between atoms: _69  and  _71
REMARK   17  A    between atoms: _71  and  _72
REMARK   18  A    between atoms: _71  and  _74
REMARK   19  A    between atoms: _74  and  _75
REMARK   20  A    between atoms: _80  and  _81
REMARK   21  A    between atoms: _83  and  _85
REMARK   22  A    between atoms: _85  and  _86
REMARK   23  A    between atoms: _85  and  _88
REMARK   24  A    between atoms: _88  and  _89
REMARK   25  A    between atoms: _89  and  _90
REMARK   26  A    between atoms: _93  and  _95
REMARK   27  A    between atoms: _95  and  _96
REMARK   28  A    between atoms: _95  and  _98
REMARK   29  A    between atoms: _98  and  _99
REMARK   30  A    between atoms: _99  and  _100
REMARK   31  A    between atoms: _102  and  _104
REMARK   32  A    between atoms: _104  and  _105
REMARK   33  A    between atoms: _104  and  _107
REMARK   34  A    between atoms: _107  and  _108
REMARK   35  A    between atoms: _111  and  _113
REMARK   36  A    between atoms: _113  and  _114
REMARK   37  A    between atoms: _113  and  _116
REMARK   38  A    between atoms: _116  and  _117
REMARK   39  A    between atoms: _117  and  _119
REMARK   40  A    between atoms: _119  and  ZN_385
REMARK   41  A    between atoms: _121  and  _122
REMARK   42  A    between atoms: _127  and  _129
REMARK   43  A    between atoms: _129  and  _130
REMARK   44  A    between atoms: _129  and  _132
REMARK   45  A    between atoms: _132  and  _133
REMARK   46  A    between atoms: _139  and  _141
REMARK   47  A    between atoms: _141  and  _142
REMARK   48  A    between atoms: _141  and  _144
REMARK   49  A    between atoms: _144  and  _145
REMARK   50  A    between atoms: _145  and  _146
REMARK   51  A    between atoms: _146  and  _147
REMARK   52  A    between atoms: _156  and  _158
REMARK   53  A    between atoms: _158  and  _159
REMARK   54  A    between atoms: _158  and  _161
REMARK   55  A    between atoms: _161  and  _162
REMARK   56  A    between atoms: _167  and  _168
REMARK   57  A    between atoms: _170  and  _172
REMARK   58  A    between atoms: _172  and  _173
REMARK   59  A    between atoms: _172  and  _175
REMARK   60  A    between atoms: _175  and  _176
REMARK   61  A    between atoms: _178  and  _180
REMARK   62  A    between atoms: _180  and  _181
REMARK   63  A    between atoms: _180  and  _183
REMARK   64  A    between atoms: _183  and  _184
REMARK   65  A    between atoms: _189  and  _190
REMARK   66  A    between atoms: _192  and  _194
REMARK   67  A    between atoms: _194  and  _195
REMARK   68  A    between atoms: _194  and  _197
REMARK   69  A    between atoms: _197  and  _198
REMARK   70  A    between atoms: _201  and  _203
REMARK   71  A    between atoms: _203  and  _204
REMARK   72  A    between atoms: _203  and  _206
REMARK   73  A    between atoms: _206  and  _207
REMARK   74  A    between atoms: _210  and  _212
REMARK   75  A    between atoms: _212  and  _213
REMARK   76  A    between atoms: _212  and  _215
REMARK   77  A    between atoms: _215  and  _216
REMARK   78  A    between atoms: _222  and  _224
REMARK   79  A    between atoms: _224  and  _225
REMARK   80  A    between atoms: _224  and  _227
REMARK   81  A    between atoms: _227  and  _228
REMARK   82  A    between atoms: _233  and  _234
REMARK   83  A    between atoms: _236  and  _238
REMARK   84  A    between atoms: _238  and  _239
REMARK   85  A    between atoms: _238  and  _241
REMARK   86  A    between atoms: _241  and  _242
REMARK   87  A    between atoms: _245  and  _247
REMARK   88  A    between atoms: _247  and  _248
REMARK   89  A    between atoms: _247  and  _250
REMARK   90  A    between atoms: _250  and  _251
REMARK   91  A    between atoms: _261  and  _263
REMARK   92  A    between atoms: _263  and  _264
REMARK   93  A    between atoms: _263  and  _266
REMARK   94  A    between atoms: _266  and  _267
REMARK   95  A    between atoms: _272  and  _274
REMARK   96  A    between atoms: _274  and  _275
REMARK   97  A    between atoms: _274  and  _277
REMARK   98  A    between atoms: _277  and  _278
REMARK   99  A    between atoms: _282  and  ZN_385
REMARK  100  A    between atoms: _283  and  _285
REMARK  101  A    between atoms: _285  and  _286
REMARK  102  A    between atoms: _285  and  _288
REMARK  103  A    between atoms: _288  and  _289
REMARK  104  A    between atoms: _292  and  _294
REMARK  105  A    between atoms: _294  and  _295
REMARK  106  A    between atoms: _297  and  _299
REMARK  107  A    between atoms: _299  and  _300
REMARK  108  A    between atoms: _299  and  _302
REMARK  109  A    between atoms: _302  and  _303
REMARK  110  A    between atoms: _306  and  _308
REMARK  111  A    between atoms: _308  and  _309
REMARK  112  A    between atoms: _308  and  _311
REMARK  113  A    between atoms: _311  and  _312
REMARK  114  A    between atoms: _315  and  _317
REMARK  115  A    between atoms: _317  and  _318
REMARK  116  A    between atoms: _321  and  _323
REMARK  117  A    between atoms: _323  and  _324
REMARK  118  A    between atoms: _323  and  _326
REMARK  119  A    between atoms: _326  and  _327
REMARK  120  A    between atoms: _332  and  _333
REMARK  121  A    between atoms: _335  and  _337
REMARK  122  A    between atoms: _337  and  _338
REMARK  123  A    between atoms: _337  and  _340
REMARK  124  A    between atoms: _340  and  _341
REMARK  125  A    between atoms: _344  and  _346
REMARK  126  A    between atoms: _346  and  _347
REMARK  127  A    between atoms: _346  and  _349
REMARK  128  A    between atoms: _349  and  _350
REMARK  129  A    between atoms: _350  and  _351
REMARK  130  A    between atoms: _354  and  _356
REMARK  131  A    between atoms: _356  and  _357
REMARK  132  A    between atoms: _356  and  _359
REMARK  133  A    between atoms: _359  and  _360
REMARK  134  A    between atoms: _360  and  _361
REMARK  135  A    between atoms: _361  and  _362
REMARK  136  A    between atoms: _371  and  _373
REMARK  137  A    between atoms: _373  and  _374
REMARK  138  A    between atoms: _376  and  _378
REMARK  139  A    between atoms: _378  and  _379
REMARK  140  A    between atoms: _378  and  _381
REMARK  141  A    between atoms: _381  and  _382
REMARK                            x       y       z     vdW  Elec       q    Type
REMARK                         _______ _______ _______ _____ _____    ______ ____
ROOT
ATOM      1  O   HOH     1      25.420  65.501  17.712  0.00  0.00    +0.000 OA
ENDROOT
TORSDOF 0
REMARK  Name = ../refined-set-2016/3d51/3d51_pocket.pdb
REMARK  141 active torsions:
REMARK  status: ('A' for Active; 'I' for Inactive)
REMARK    1  A    between atoms: _1  and  _3
REMARK    2  A    between atoms: _14  and  _17
REMARK    3  A    between atoms: _17  and  _18
REMARK    4  A    between atoms: _25  and  _26
REMARK    5  A    between atoms: _33  and  _34
REMARK    6  A    between atoms: _39  and  _41
REMARK    7  A    between atoms: _41  and  _42
REMARK    8  A    between atoms: _44  and  _46
REMARK    9  A    between atoms: _46  and  _47
REMARK   10  A    between atoms: _46  and  _49
REMARK   11  A    between atoms: _49  and  _50
REMARK   12  A    between atoms: _60  and  _62
REMARK   13  A    between atoms: _62  and  _63
REMARK   14  A    between atoms: _62  and  _65
REMARK   15  A    between atoms: _65  and  _66
REMARK   16  A    between atoms: _69  and  _71
REMARK   17  A    between atoms: _71  and  _72
REMARK   18  A    between atoms: _71  and  _74
REMARK   19  A    between atoms: _74  and  _75
REMARK   20  A    between atoms: _80  and  _81
REMARK   21  A    between atoms: _83  and  _85
REMARK   22  A    between atoms: _85  and  _86
REMARK   23  A    between atoms: _85  and  _88
REMARK   24  A    between atoms: _88  and  _89
REMARK   25  A    between atoms: _89  and  _90
REMARK   26  A    between atoms: _93  and  _95
REMARK   27  A    between atoms: _95  and  _96
REMARK   28  A    between atoms: _95  and  _98
REMARK   29  A    between atoms: _98  and  _99
REMARK   30  A    between atoms: _99  and  _100
REMARK   31  A    between atoms: _102  and  _104
REMARK   32  A    between atoms: _104  and  _105
REMARK   33  A    between atoms: _104  and  _107
REMARK   34  A    between atoms: _107  and  _108
REMARK   35  A    between atoms: _111  and  _113
REMARK   36  A    between atoms: _113  and  _114
REMARK   37  A    between atoms: _113  and  _116
REMARK   38  A    between atoms: _116  and  _117
REMARK   39  A    between atoms: _117  and  _119
REMARK   40  A    between atoms: _119  and  ZN_385
REMARK   41  A    between atoms: _121  and  _122
REMARK   42  A    between atoms: _127  and  _129
REMARK   43  A    between atoms: _129  and  _130
REMARK   44  A    between atoms: _129  and  _132
REMARK   45  A    between atoms: _132  and  _133
REMARK   46  A    between atoms: _139  and  _141
REMARK   47  A    between atoms: _141  and  _142
REMARK   48  A    between atoms: _141  and  _144
REMARK   49  A    between atoms: _144  and  _145
REMARK   50  A    between atoms: _145  and  _146
REMARK   51  A    between atoms: _146  and  _147
REMARK   52  A    between atoms: _156  and  _158
REMARK   53  A    between atoms: _158  and  _159
REMARK   54  A    between atoms: _158  and  _161
REMARK   55  A    between atoms: _161  and  _162
REMARK   56  A    between atoms: _167  and  _168
REMARK   57  A    between atoms: _170  and  _172
REMARK   58  A    between atoms: _172  and  _173
REMARK   59  A    between atoms: _172  and  _175
REMARK   60  A    between atoms: _175  and  _176
REMARK   61  A    between atoms: _178  and  _180
REMARK   62  A    between atoms: _180  and  _181
REMARK   63  A    between atoms: _180  and  _183
REMARK   64  A    between atoms: _183  and  _184
REMARK   65  A    between atoms: _189  and  _190
REMARK   66  A    between atoms: _192  and  _194
REMARK   67  A    between atoms: _194  and  _195
REMARK   68  A    between atoms: _194  and  _197
REMARK   69  A    between atoms: _197  and  _198
REMARK   70  A    between atoms: _201  and  _203
REMARK   71  A    between atoms: _203  and  _204
REMARK   72  A    between atoms: _203  and  _206
REMARK   73  A    between atoms: _206  and  _207
REMARK   74  A    between atoms: _210  and  _212
REMARK   75  A    between atoms: _212  and  _213
REMARK   76  A    between atoms: _212  and  _215
REMARK   77  A    between atoms: _215  and  _216
REMARK   78  A    between atoms: _222  and  _224
REMARK   79  A    between atoms: _224  and  _225
REMARK   80  A    between atoms: _224  and  _227
REMARK   81  A    between atoms: _227  and  _228
REMARK   82  A    between atoms: _233  and  _234
REMARK   83  A    between atoms: _236  and  _238
REMARK   84  A    between atoms: _238  and  _239
REMARK   85  A    between atoms: _238  and  _241
REMARK   86  A    between atoms: _241  and  _242
REMARK   87  A    between atoms: _245  and  _247
REMARK   88  A    between atoms: _247  and  _248
REMARK   89  A    between atoms: _247  and  _250
REMARK   90  A    between atoms: _250  and  _251
REMARK   91  A    between atoms: _261  and  _263
REMARK   92  A    between atoms: _263  and  _264
REMARK   93  A    between atoms: _263  and  _266
REMARK   94  A    between atoms: _266  and  _267
REMARK   95  A    between atoms: _272  and  _274
REMARK   96  A    between atoms: _274  and  _275
REMARK   97  A    between atoms: _274  and  _277
REMARK   98  A    between atoms: _277  and  _278
REMARK   99  A    between atoms: _282  and  ZN_385
REMARK  100  A    between atoms: _283  and  _285
REMARK  101  A    between atoms: _285  and  _286
REMARK  102  A    between atoms: _285  and  _288
REMARK  103  A    between atoms: _288  and  _289
REMARK  104  A    between atoms: _292  and  _294
REMARK  105  A    between atoms: _294  and  _295
REMARK  106  A    between atoms: _297  and  _299
REMARK  107  A    between atoms: _299  and  _300
REMARK  108  A    between atoms: _299  and  _302
REMARK  109  A    between atoms: _302  and  _303
REMARK  110  A    between atoms: _306  and  _308
REMARK  111  A    between atoms: _308  and  _309
REMARK  112  A    between atoms: _308  and  _311
REMARK  113  A    between atoms: _311  and  _312
REMARK  114  A    between atoms: _315  and  _317
REMARK  115  A    between atoms: _317  and  _318
REMARK  116  A    between atoms: _321  and  _323
REMARK  117  A    between atoms: _323  and  _324
REMARK  118  A    between atoms: _323  and  _326
REMARK  119  A    between atoms: _326  and  _327
REMARK  120  A    between atoms: _332  and  _333
REMARK  121  A    between atoms: _335  and  _337
REMARK  122  A    between atoms: _337  and  _338
REMARK  123  A    between atoms: _337  and  _340
REMARK  124  A    between atoms: _340  and  _341
REMARK  125  A    between atoms: _344  and  _346
REMARK  126  A    between atoms: _346  and  _347
REMARK  127  A    between atoms: _346  and  _349
REMARK  128  A    between atoms: _349  and  _350
REMARK  129  A    between atoms: _350  and  _351
REMARK  130  A    between atoms: _354  and  _356
REMARK  131  A    between atoms: _356  and  _357
REMARK  132  A    between atoms: _356  and  _359
REMARK  133  A    between atoms: _359  and  _360
REMARK  134  A    between atoms: _360  and  _361
REMARK  135  A    between atoms: _361  and  _362
REMARK  136  A    between atoms: _371  and  _373
REMARK  137  A    between atoms: _373  and  _374
REMARK  138  A    between atoms: _376  and  _378
REMARK  139  A    between atoms: _378  and  _379
REMARK  140  A    between atoms: _378  and  _381
REMARK  141  A    between atoms: _381  and  _382
REMARK                            x       y       z     vdW  Elec       q    Type
REMARK                         _______ _______ _______ _____ _____    ______ ____
ROOT
ATOM      1  O   HOH     1      29.815  66.490  18.512  0.00  0.00    +0.000 OA
ENDROOT
TORSDOF 0
REMARK  Name = ../refined-set-2016/3d51/3d51_pocket.pdb
REMARK  141 active torsions:
REMARK  status: ('A' for Active; 'I' for Inactive)
REMARK    1  A    between atoms: _1  and  _3
REMARK    2  A    between atoms: _14  and  _17
REMARK    3  A    between atoms: _17  and  _18
REMARK    4  A    between atoms: _25  and  _26
REMARK    5  A    between atoms: _33  and  _34
REMARK    6  A    between atoms: _39  and  _41
REMARK    7  A    between atoms: _41  and  _42
REMARK    8  A    between atoms: _44  and  _46
REMARK    9  A    between atoms: _46  and  _47
REMARK   10  A    between atoms: _46  and  _49
REMARK   11  A    between atoms: _49  and  _50
REMARK   12  A    between atoms: _60  and  _62
REMARK   13  A    between atoms: _62  and  _63
REMARK   14  A    between atoms: _62  and  _65
REMARK   15  A    between atoms: _65  and  _66
REMARK   16  A    between atoms: _69  and  _71
REMARK   17  A    between atoms: _71  and  _72
REMARK   18  A    between atoms: _71  and  _74
REMARK   19  A    between atoms: _74  and  _75
REMARK   20  A    between atoms: _80  and  _81
REMARK   21  A    between atoms: _83  and  _85
REMARK   22  A    between atoms: _85  and  _86
REMARK   23  A    between atoms: _85  and  _88
REMARK   24  A    between atoms: _88  and  _89
REMARK   25  A    between atoms: _89  and  _90
REMARK   26  A    between atoms: _93  and  _95
REMARK   27  A    between atoms: _95  and  _96
REMARK   28  A    between atoms: _95  and  _98
REMARK   29  A    between atoms: _98  and  _99
REMARK   30  A    between atoms: _99  and  _100
REMARK   31  A    between atoms: _102  and  _104
REMARK   32  A    between atoms: _104  and  _105
REMARK   33  A    between atoms: _104  and  _107
REMARK   34  A    between atoms: _107  and  _108
REMARK   35  A    between atoms: _111  and  _113
REMARK   36  A    between atoms: _113  and  _114
REMARK   37  A    between atoms: _113  and  _116
REMARK   38  A    between atoms: _116  and  _117
REMARK   39  A    between atoms: _117  and  _119
REMARK   40  A    between atoms: _119  and  ZN_385
REMARK   41  A    between atoms: _121  and  _122
REMARK   42  A    between atoms: _127  and  _129
REMARK   43  A    between atoms: _129  and  _130
REMARK   44  A    between atoms: _129  and  _132
REMARK   45  A    between atoms: _132  and  _133
REMARK   46  A    between atoms: _139  and  _141
REMARK   47  A    between atoms: _141  and  _142
REMARK   48  A    between atoms: _141  and  _144
REMARK   49  A    between atoms: _144  and  _145
REMARK   50  A    between atoms: _145  and  _146
REMARK   51  A    between atoms: _146  and  _147
REMARK   52  A    between atoms: _156  and  _158
REMARK   53  A    between atoms: _158  and  _159
REMARK   54  A    between atoms: _158  and  _161
REMARK   55  A    between atoms: _161  and  _162
REMARK   56  A    between atoms: _167  and  _168
REMARK   57  A    between atoms: _170  and  _172
REMARK   58  A    between atoms: _172  and  _173
REMARK   59  A    between atoms: _172  and  _175
REMARK   60  A    between atoms: _175  and  _176
REMARK   61  A    between atoms: _178  and  _180
REMARK   62  A    between atoms: _180  and  _181
REMARK   63  A    between atoms: _180  and  _183
REMARK   64  A    between atoms: _183  and  _184
REMARK   65  A    between atoms: _189  and  _190
REMARK   66  A    between atoms: _192  and  _194
REMARK   67  A    between atoms: _194  and  _195
REMARK   68  A    between atoms: _194  and  _197
REMARK   69  A    between atoms: _197  and  _198
REMARK   70  A    between atoms: _201  and  _203
REMARK   71  A    between atoms: _203  and  _204
REMARK   72  A    between atoms: _203  and  _206
REMARK   73  A    between atoms: _206  and  _207
REMARK   74  A    between atoms: _210  and  _212
REMARK   75  A    between atoms: _212  and  _213
REMARK   76  A    between atoms: _212  and  _215
REMARK   77  A    between atoms: _215  and  _216
REMARK   78  A    between atoms: _222  and  _224
REMARK   79  A    between atoms: _224  and  _225
REMARK   80  A    between atoms: _224  and  _227
REMARK   81  A    between atoms: _227  and  _228
REMARK   82  A    between atoms: _233  and  _234
REMARK   83  A    between atoms: _236  and  _238
REMARK   84  A    between atoms: _238  and  _239
REMARK   85  A    between atoms: _238  and  _241
REMARK   86  A    between atoms: _241  and  _242
REMARK   87  A    between atoms: _245  and  _247
REMARK   88  A    between atoms: _247  and  _248
REMARK   89  A    between atoms: _247  and  _250
REMARK   90  A    between atoms: _250  and  _251
REMARK   91  A    between atoms: _261  and  _263
REMARK   92  A    between atoms: _263  and  _264
REMARK   93  A    between atoms: _263  and  _266
REMARK   94  A    between atoms: _266  and  _267
REMARK   95  A    between atoms: _272  and  _274
REMARK   96  A    between atoms: _274  and  _275
REMARK   97  A    between atoms: _274  and  _277
REMARK   98  A    between atoms: _277  and  _278
REMARK   99  A    between atoms: _282  and  ZN_385
REMARK  100  A    between atoms: _283  and  _285
REMARK  101  A    between atoms: _285  and  _286
REMARK  102  A    between atoms: _285  and  _288
REMARK  103  A    between atoms: _288  and  _289
REMARK  104  A    between atoms: _292  and  _294
REMARK  105  A    between atoms: _294  and  _295
REMARK  106  A    between atoms: _297  and  _299
REMARK  107  A    between atoms: _299  and  _300
REMARK  108  A    between atoms: _299  and  _302
REMARK  109  A    between atoms: _302  and  _303
REMARK  110  A    between atoms: _306  and  _308
REMARK  111  A    between atoms: _308  and  _309
REMARK  112  A    between atoms: _308  and  _311
REMARK  113  A    between atoms: _311  and  _312
REMARK  114  A    between atoms: _315  and  _317
REMARK  115  A    between atoms: _317  and  _318
REMARK  116  A    between atoms: _321  and  _323
REMARK  117  A    between atoms: _323  and  _324
REMARK  118  A    between atoms: _323  and  _326
REMARK  119  A    between atoms: _326  and  _327
REMARK  120  A    between atoms: _332  and  _333
REMARK  121  A    between atoms: _335  and  _337
REMARK  122  A    between atoms: _337  and  _338
REMARK  123  A    between atoms: _337  and  _340
REMARK  124  A    between atoms: _340  and  _341
REMARK  125  A    between atoms: _344  and  _346
REMARK  126  A    between atoms: _346  and  _347
REMARK  127  A    between atoms: _346  and  _349
REMARK  128  A    between atoms: _349  and  _350
REMARK  129  A    between atoms: _350  and  _351
REMARK  130  A    between atoms: _354  and  _356
REMARK  131  A    between atoms: _356  and  _357
REMARK  132  A    between atoms: _356  and  _359
REMARK  133  A    between atoms: _359  and  _360
REMARK  134  A    between atoms: _360  and  _361
REMARK  135  A    between atoms: _361  and  _362
REMARK  136  A    between atoms: _371  and  _373
REMARK  137  A    between atoms: _373  and  _374
REMARK  138  A    between atoms: _376  and  _378
REMARK  139  A    between atoms: _378  and  _379
REMARK  140  A    between atoms: _378  and  _381
REMARK  141  A    between atoms: _381  and  _382
REMARK                            x       y       z     vdW  Elec       q    Type
REMARK                         _______ _______ _______ _____ _____    ______ ____
ROOT
ATOM      1  O   HOH     1      34.439  69.946  13.463  0.00  0.00    +0.000 OA
ENDROOT
TORSDOF 0
REMARK  Name = ../refined-set-2016/3d51/3d51_pocket.pdb
REMARK  141 active torsions:
REMARK  status: ('A' for Active; 'I' for Inactive)
REMARK    1  A    between atoms: _1  and  _3
REMARK    2  A    between atoms: _14  and  _17
REMARK    3  A    between atoms: _17  and  _18
REMARK    4  A    between atoms: _25  and  _26
REMARK    5  A    between atoms: _33  and  _34
REMARK    6  A    between atoms: _39  and  _41
REMARK    7  A    between atoms: _41  and  _42
REMARK    8  A    between atoms: _44  and  _46
REMARK    9  A    between atoms: _46  and  _47
REMARK   10  A    between atoms: _46  and  _49
REMARK   11  A    between atoms: _49  and  _50
REMARK   12  A    between atoms: _60  and  _62
REMARK   13  A    between atoms: _62  and  _63
REMARK   14  A    between atoms: _62  and  _65
REMARK   15  A    between atoms: _65  and  _66
REMARK   16  A    between atoms: _69  and  _71
REMARK   17  A    between atoms: _71  and  _72
REMARK   18  A    between atoms: _71  and  _74
REMARK   19  A    between atoms: _74  and  _75
REMARK   20  A    between atoms: _80  and  _81
REMARK   21  A    between atoms: _83  and  _85
REMARK   22  A    between atoms: _85  and  _86
REMARK   23  A    between atoms: _85  and  _88
REMARK   24  A    between atoms: _88  and  _89
REMARK   25  A    between atoms: _89  and  _90
REMARK   26  A    between atoms: _93  and  _95
REMARK   27  A    between atoms: _95  and  _96
REMARK   28  A    between atoms: _95  and  _98
REMARK   29  A    between atoms: _98  and  _99
REMARK   30  A    between atoms: _99  and  _100
REMARK   31  A    between atoms: _102  and  _104
REMARK   32  A    between atoms: _104  and  _105
REMARK   33  A    between atoms: _104  and  _107
REMARK   34  A    between atoms: _107  and  _108
REMARK   35  A    between atoms: _111  and  _113
REMARK   36  A    between atoms: _113  and  _114
REMARK   37  A    between atoms: _113  and  _116
REMARK   38  A    between atoms: _116  and  _117
REMARK   39  A    between atoms: _117  and  _119
REMARK   40  A    between atoms: _119  and  ZN_385
REMARK   41  A    between atoms: _121  and  _122
REMARK   42  A    between atoms: _127  and  _129
REMARK   43  A    between atoms: _129  and  _130
REMARK   44  A    between atoms: _129  and  _132
REMARK   45  A    between atoms: _132  and  _133
REMARK   46  A    between atoms: _139  and  _141
REMARK   47  A    between atoms: _141  and  _142
REMARK   48  A    between atoms: _141  and  _144
REMARK   49  A    between atoms: _144  and  _145
REMARK   50  A    between atoms: _145  and  _146
REMARK   51  A    between atoms: _146  and  _147
REMARK   52  A    between atoms: _156  and  _158
REMARK   53  A    between atoms: _158  and  _159
REMARK   54  A    between atoms: _158  and  _161
REMARK   55  A    between atoms: _161  and  _162
REMARK   56  A    between atoms: _167  and  _168
REMARK   57  A    between atoms: _170  and  _172
REMARK   58  A    between atoms: _172  and  _173
REMARK   59  A    between atoms: _172  and  _175
REMARK   60  A    between atoms: _175  and  _176
REMARK   61  A    between atoms: _178  and  _180
REMARK   62  A    between atoms: _180  and  _181
REMARK   63  A    between atoms: _180  and  _183
REMARK   64  A    between atoms: _183  and  _184
REMARK   65  A    between atoms: _189  and  _190
REMARK   66  A    between atoms: _192  and  _194
REMARK   67  A    between atoms: _194  and  _195
REMARK   68  A    between atoms: _194  and  _197
REMARK   69  A    between atoms: _197  and  _198
REMARK   70  A    between atoms: _201  and  _203
REMARK   71  A    between atoms: _203  and  _204
REMARK   72  A    between atoms: _203  and  _206
REMARK   73  A    between atoms: _206  and  _207
REMARK   74  A    between atoms: _210  and  _212
REMARK   75  A    between atoms: _212  and  _213
REMARK   76  A    between atoms: _212  and  _215
REMARK   77  A    between atoms: _215  and  _216
REMARK   78  A    between atoms: _222  and  _224
REMARK   79  A    between atoms: _224  and  _225
REMARK   80  A    between atoms: _224  and  _227
REMARK   81  A    between atoms: _227  and  _228
REMARK   82  A    between atoms: _233  and  _234
REMARK   83  A    between atoms: _236  and  _238
REMARK   84  A    between atoms: _238  and  _239
REMARK   85  A    between atoms: _238  and  _241
REMARK   86  A    between atoms: _241  and  _242
REMARK   87  A    between atoms: _245  and  _247
REMARK   88  A    between atoms: _247  and  _248
REMARK   89  A    between atoms: _247  and  _250
REMARK   90  A    between atoms: _250  and  _251
REMARK   91  A    between atoms: _261  and  _263
REMARK   92  A    between atoms: _263  and  _264
REMARK   93  A    between atoms: _263  and  _266
REMARK   94  A    between atoms: _266  and  _267
REMARK   95  A    between atoms: _272  and  _274
REMARK   96  A    between atoms: _274  and  _275
REMARK   97  A    between atoms: _274  and  _277
REMARK   98  A    between atoms: _277  and  _278
REMARK   99  A    between atoms: _282  and  ZN_385
REMARK  100  A    between atoms: _283  and  _285
REMARK  101  A    between atoms: _285  and  _286
REMARK  102  A    between atoms: _285  and  _288
REMARK  103  A    between atoms: _288  and  _289
REMARK  104  A    between atoms: _292  and  _294
REMARK  105  A    between atoms: _294  and  _295
REMARK  106  A    between atoms: _297  and  _299
REMARK  107  A    between atoms: _299  and  _300
REMARK  108  A    between atoms: _299  and  _302
REMARK  109  A    between atoms: _302  and  _303
REMARK  110  A    between atoms: _306  and  _308
REMARK  111  A    between atoms: _308  and  _309
REMARK  112  A    between atoms: _308  and  _311
REMARK  113  A    between atoms: _311  and  _312
REMARK  114  A    between atoms: _315  and  _317
REMARK  115  A    between atoms: _317  and  _318
REMARK  116  A    between atoms: _321  and  _323
REMARK  117  A    between atoms: _323  and  _324
REMARK  118  A    between atoms: _323  and  _326
REMARK  119  A    between atoms: _326  and  _327
REMARK  120  A    between atoms: _332  and  _333
REMARK  121  A    between atoms: _335  and  _337
REMARK  122  A    between atoms: _337  and  _338
REMARK  123  A    between atoms: _337  and  _340
REMARK  124  A    between atoms: _340  and  _341
REMARK  125  A    between atoms: _344  and  _346
REMARK  126  A    between atoms: _346  and  _347
REMARK  127  A    between atoms: _346  and  _349
REMARK  128  A    between atoms: _349  and  _350
REMARK  129  A    between atoms: _350  and  _351
REMARK  130  A    between atoms: _354  and  _356
REMARK  131  A    between atoms: _356  and  _357
REMARK  132  A    between atoms: _356  and  _359
REMARK  133  A    between atoms: _359  and  _360
REMARK  134  A    between atoms: _360  and  _361
REMARK  135  A    between atoms: _361  and  _362
REMARK  136  A    between atoms: _371  and  _373
REMARK  137  A    between atoms: _373  and  _374
REMARK  138  A    between atoms: _376  and  _378
REMARK  139  A    between atoms: _378  and  _379
REMARK  140  A    between atoms: _378  and  _381
REMARK  141  A    between atoms: _381  and  _382
REMARK                            x       y       z     vdW  Elec       q    Type
REMARK                         _______ _______ _______ _____ _____    ______ ____
ROOT
ATOM      1  O   HOH     1      34.214  67.258  12.618  0.00  0.00    +0.000 OA
ENDROOT
TORSDOF 0
REMARK  Name = ../refined-set-2016/3d51/3d51_pocket.pdb
REMARK  141 active torsions:
REMARK  status: ('A' for Active; 'I' for Inactive)
REMARK    1  A    between atoms: _1  and  _3
REMARK    2  A    between atoms: _14  and  _17
REMARK    3  A    between atoms: _17  and  _18
REMARK    4  A    between atoms: _25  and  _26
REMARK    5  A    between atoms: _33  and  _34
REMARK    6  A    between atoms: _39  and  _41
REMARK    7  A    between atoms: _41  and  _42
REMARK    8  A    between atoms: _44  and  _46
REMARK    9  A    between atoms: _46  and  _47
REMARK   10  A    between atoms: _46  and  _49
REMARK   11  A    between atoms: _49  and  _50
REMARK   12  A    between atoms: _60  and  _62
REMARK   13  A    between atoms: _62  and  _63
REMARK   14  A    between atoms: _62  and  _65
REMARK   15  A    between atoms: _65  and  _66
REMARK   16  A    between atoms: _69  and  _71
REMARK   17  A    between atoms: _71  and  _72
REMARK   18  A    between atoms: _71  and  _74
REMARK   19  A    between atoms: _74  and  _75
REMARK   20  A    between atoms: _80  and  _81
REMARK   21  A    between atoms: _83  and  _85
REMARK   22  A    between atoms: _85  and  _86
REMARK   23  A    between atoms: _85  and  _88
REMARK   24  A    between atoms: _88  and  _89
REMARK   25  A    between atoms: _89  and  _90
REMARK   26  A    between atoms: _93  and  _95
REMARK   27  A    between atoms: _95  and  _96
REMARK   28  A    between atoms: _95  and  _98
REMARK   29  A    between atoms: _98  and  _99
REMARK   30  A    between atoms: _99  and  _100
REMARK   31  A    between atoms: _102  and  _104
REMARK   32  A    between atoms: _104  and  _105
REMARK   33  A    between atoms: _104  and  _107
REMARK   34  A    between atoms: _107  and  _108
REMARK   35  A    between atoms: _111  and  _113
REMARK   36  A    between atoms: _113  and  _114
REMARK   37  A    between atoms: _113  and  _116
REMARK   38  A    between atoms: _116  and  _117
REMARK   39  A    between atoms: _117  and  _119
REMARK   40  A    between atoms: _119  and  ZN_385
REMARK   41  A    between atoms: _121  and  _122
REMARK   42  A    between atoms: _127  and  _129
REMARK   43  A    between atoms: _129  and  _130
REMARK   44  A    between atoms: _129  and  _132
REMARK   45  A    between atoms: _132  and  _133
REMARK   46  A    between atoms: _139  and  _141
REMARK   47  A    between atoms: _141  and  _142
REMARK   48  A    between atoms: _141  and  _144
REMARK   49  A    between atoms: _144  and  _145
REMARK   50  A    between atoms: _145  and  _146
REMARK   51  A    between atoms: _146  and  _147
REMARK   52  A    between atoms: _156  and  _158
REMARK   53  A    between atoms: _158  and  _159
REMARK   54  A    between atoms: _158  and  _161
REMARK   55  A    between atoms: _161  and  _162
REMARK   56  A    between atoms: _167  and  _168
REMARK   57  A    between atoms: _170  and  _172
REMARK   58  A    between atoms: _172  and  _173
REMARK   59  A    between atoms: _172  and  _175
REMARK   60  A    between atoms: _175  and  _176
REMARK   61  A    between atoms: _178  and  _180
REMARK   62  A    between atoms: _180  and  _181
REMARK   63  A    between atoms: _180  and  _183
REMARK   64  A    between atoms: _183  and  _184
REMARK   65  A    between atoms: _189  and  _190
REMARK   66  A    between atoms: _192  and  _194
REMARK   67  A    between atoms: _194  and  _195
REMARK   68  A    between atoms: _194  and  _197
REMARK   69  A    between atoms: _197  and  _198
REMARK   70  A    between atoms: _201  and  _203
REMARK   71  A    between atoms: _203  and  _204
REMARK   72  A    between atoms: _203  and  _206
REMARK   73  A    between atoms: _206  and  _207
REMARK   74  A    between atoms: _210  and  _212
REMARK   75  A    between atoms: _212  and  _213
REMARK   76  A    between atoms: _212  and  _215
REMARK   77  A    between atoms: _215  and  _216
REMARK   78  A    between atoms: _222  and  _224
REMARK   79  A    between atoms: _224  and  _225
REMARK   80  A    between atoms: _224  and  _227
REMARK   81  A    between atoms: _227  and  _228
REMARK   82  A    between atoms: _233  and  _234
REMARK   83  A    between atoms: _236  and  _238
REMARK   84  A    between atoms: _238  and  _239
REMARK   85  A    between atoms: _238  and  _241
REMARK   86  A    between atoms: _241  and  _242
REMARK   87  A    between atoms: _245  and  _247
REMARK   88  A    between atoms: _247  and  _248
REMARK   89  A    between atoms: _247  and  _250
REMARK   90  A    between atoms: _250  and  _251
REMARK   91  A    between atoms: _261  and  _263
REMARK   92  A    between atoms: _263  and  _264
REMARK   93  A    between atoms: _263  and  _266
REMARK   94  A    between atoms: _266  and  _267
REMARK   95  A    between atoms: _272  and  _274
REMARK   96  A    between atoms: _274  and  _275
REMARK   97  A    between atoms: _274  and  _277
REMARK   98  A    between atoms: _277  and  _278
REMARK   99  A    between atoms: _282  and  ZN_385
REMARK  100  A    between atoms: _283  and  _285
REMARK  101  A    between atoms: _285  and  _286
REMARK  102  A    between atoms: _285  and  _288
REMARK  103  A    between atoms: _288  and  _289
REMARK  104  A    between atoms: _292  and  _294
REMARK  105  A    between atoms: _294  and  _295
REMARK  106  A    between atoms: _297  and  _299
REMARK  107  A    between atoms: _299  and  _300
REMARK  108  A    between atoms: _299  and  _302
REMARK  109  A    between atoms: _302  and  _303
REMARK  110  A    between atoms: _306  and  _308
REMARK  111  A    between atoms: _308  and  _309
REMARK  112  A    between atoms: _308  and  _311
REMARK  113  A    between atoms: _311  and  _312
REMARK  114  A    between atoms: _315  and  _317
REMARK  115  A    between atoms: _317  and  _318
REMARK  116  A    between atoms: _321  and  _323
REMARK  117  A    between atoms: _323  and  _324
REMARK  118  A    between atoms: _323  and  _326
REMARK  119  A    between atoms: _326  and  _327
REMARK  120  A    between atoms: _332  and  _333
REMARK  121  A    between atoms: _335  and  _337
REMARK  122  A    between atoms: _337  and  _338
REMARK  123  A    between atoms: _337  and  _340
REMARK  124  A    between atoms: _340  and  _341
REMARK  125  A    between atoms: _344  and  _346
REMARK  126  A    between atoms: _346  and  _347
REMARK  127  A    between atoms: _346  and  _349
REMARK  128  A    between atoms: _349  and  _350
REMARK  129  A    between atoms: _350  and  _351
REMARK  130  A    between atoms: _354  and  _356
REMARK  131  A    between atoms: _356  and  _357
REMARK  132  A    between atoms: _356  and  _359
REMARK  133  A    between atoms: _359  and  _360
REMARK  134  A    between atoms: _360  and  _361
REMARK  135  A    between atoms: _361  and  _362
REMARK  136  A    between atoms: _371  and  _373
REMARK  137  A    between atoms: _373  and  _374
REMARK  138  A    between atoms: _376  and  _378
REMARK  139  A    between atoms: _378  and  _379
REMARK  140  A    between atoms: _378  and  _381
REMARK  141  A    between atoms: _381  and  _382
REMARK                            x       y       z     vdW  Elec       q    Type
REMARK                         _______ _______ _______ _____ _____    ______ ____
ROOT
ATOM      1  O   HOH     1      31.625  70.496  13.872  0.00  0.00    +0.000 OA
ENDROOT
TORSDOF 0
REMARK  Name = ../refined-set-2016/3d51/3d51_pocket.pdb
REMARK  141 active torsions:
REMARK  status: ('A' for Active; 'I' for Inactive)
REMARK    1  A    between atoms: _1  and  _3
REMARK    2  A    between atoms: _14  and  _17
REMARK    3  A    between atoms: _17  and  _18
REMARK    4  A    between atoms: _25  and  _26
REMARK    5  A    between atoms: _33  and  _34
REMARK    6  A    between atoms: _39  and  _41
REMARK    7  A    between atoms: _41  and  _42
REMARK    8  A    between atoms: _44  and  _46
REMARK    9  A    between atoms: _46  and  _47
REMARK   10  A    between atoms: _46  and  _49
REMARK   11  A    between atoms: _49  and  _50
REMARK   12  A    between atoms: _60  and  _62
REMARK   13  A    between atoms: _62  and  _63
REMARK   14  A    between atoms: _62  and  _65
REMARK   15  A    between atoms: _65  and  _66
REMARK   16  A    between atoms: _69  and  _71
REMARK   17  A    between atoms: _71  and  _72
REMARK   18  A    between atoms: _71  and  _74
REMARK   19  A    between atoms: _74  and  _75
REMARK   20  A    between atoms: _80  and  _81
REMARK   21  A    between atoms: _83  and  _85
REMARK   22  A    between atoms: _85  and  _86
REMARK   23  A    between atoms: _85  and  _88
REMARK   24  A    between atoms: _88  and  _89
REMARK   25  A    between atoms: _89  and  _90
REMARK   26  A    between atoms: _93  and  _95
REMARK   27  A    between atoms: _95  and  _96
REMARK   28  A    between atoms: _95  and  _98
REMARK   29  A    between atoms: _98  and  _99
REMARK   30  A    between atoms: _99  and  _100
REMARK   31  A    between atoms: _102  and  _104
REMARK   32  A    between atoms: _104  and  _105
REMARK   33  A    between atoms: _104  and  _107
REMARK   34  A    between atoms: _107  and  _108
REMARK   35  A    between atoms: _111  and  _113
REMARK   36  A    between atoms: _113  and  _114
REMARK   37  A    between atoms: _113  and  _116
REMARK   38  A    between atoms: _116  and  _117
REMARK   39  A    between atoms: _117  and  _119
REMARK   40  A    between atoms: _119  and  ZN_385
REMARK   41  A    between atoms: _121  and  _122
REMARK   42  A    between atoms: _127  and  _129
REMARK   43  A    between atoms: _129  and  _130
REMARK   44  A    between atoms: _129  and  _132
REMARK   45  A    between atoms: _132  and  _133
REMARK   46  A    between atoms: _139  and  _141
REMARK   47  A    between atoms: _141  and  _142
REMARK   48  A    between atoms: _141  and  _144
REMARK   49  A    between atoms: _144  and  _145
REMARK   50  A    between atoms: _145  and  _146
REMARK   51  A    between atoms: _146  and  _147
REMARK   52  A    between atoms: _156  and  _158
REMARK   53  A    between atoms: _158  and  _159
REMARK   54  A    between atoms: _158  and  _161
REMARK   55  A    between atoms: _161  and  _162
REMARK   56  A    between atoms: _167  and  _168
REMARK   57  A    between atoms: _170  and  _172
REMARK   58  A    between atoms: _172  and  _173
REMARK   59  A    between atoms: _172  and  _175
REMARK   60  A    between atoms: _175  and  _176
REMARK   61  A    between atoms: _178  and  _180
REMARK   62  A    between atoms: _180  and  _181
REMARK   63  A    between atoms: _180  and  _183
REMARK   64  A    between atoms: _183  and  _184
REMARK   65  A    between atoms: _189  and  _190
REMARK   66  A    between atoms: _192  and  _194
REMARK   67  A    between atoms: _194  and  _195
REMARK   68  A    between atoms: _194  and  _197
REMARK   69  A    between atoms: _197  and  _198
REMARK   70  A    between atoms: _201  and  _203
REMARK   71  A    between atoms: _203  and  _204
REMARK   72  A    between atoms: _203  and  _206
REMARK   73  A    between atoms: _206  and  _207
REMARK   74  A    between atoms: _210  and  _212
REMARK   75  A    between atoms: _212  and  _213
REMARK   76  A    between atoms: _212  and  _215
REMARK   77  A    between atoms: _215  and  _216
REMARK   78  A    between atoms: _222  and  _224
REMARK   79  A    between atoms: _224  and  _225
REMARK   80  A    between atoms: _224  and  _227
REMARK   81  A    between atoms: _227  and  _228
REMARK   82  A    between atoms: _233  and  _234
REMARK   83  A    between atoms: _236  and  _238
REMARK   84  A    between atoms: _238  and  _239
REMARK   85  A    between atoms: _238  and  _241
REMARK   86  A    between atoms: _241  and  _242
REMARK   87  A    between atoms: _245  and  _247
REMARK   88  A    between atoms: _247  and  _248
REMARK   89  A    between atoms: _247  and  _250
REMARK   90  A    between atoms: _250  and  _251
REMARK   91  A    between atoms: _261  and  _263
REMARK   92  A    between atoms: _263  and  _264
REMARK   93  A    between atoms: _263  and  _266
REMARK   94  A    between atoms: _266  and  _267
REMARK   95  A    between atoms: _272  and  _274
REMARK   96  A    between atoms: _274  and  _275
REMARK   97  A    between atoms: _274  and  _277
REMARK   98  A    between atoms: _277  and  _278
REMARK   99  A    between atoms: _282  and  ZN_385
REMARK  100  A    between atoms: _283  and  _285
REMARK  101  A    between atoms: _285  and  _286
REMARK  102  A    between atoms: _285  and  _288
REMARK  103  A    between atoms: _288  and  _289
REMARK  104  A    between atoms: _292  and  _294
REMARK  105  A    between atoms: _294  and  _295
REMARK  106  A    between atoms: _297  and  _299
REMARK  107  A    between atoms: _299  and  _300
REMARK  108  A    between atoms: _299  and  _302
REMARK  109  A    between atoms: _302  and  _303
REMARK  110  A    between atoms: _306  and  _308
REMARK  111  A    between atoms: _308  and  _309
REMARK  112  A    between atoms: _308  and  _311
REMARK  113  A    between atoms: _311  and  _312
REMARK  114  A    between atoms: _315  and  _317
REMARK  115  A    between atoms: _317  and  _318
REMARK  116  A    between atoms: _321  and  _323
REMARK  117  A    between atoms: _323  and  _324
REMARK  118  A    between atoms: _323  and  _326
REMARK  119  A    between atoms: _326  and  _327
REMARK  120  A    between atoms: _332  and  _333
REMARK  121  A    between atoms: _335  and  _337
REMARK  122  A    between atoms: _337  and  _338
REMARK  123  A    between atoms: _337  and  _340
REMARK  124  A    between atoms: _340  and  _341
REMARK  125  A    between atoms: _344  and  _346
REMARK  126  A    between atoms: _346  and  _347
REMARK  127  A    between atoms: _346  and  _349
REMARK  128  A    between atoms: _349  and  _350
REMARK  129  A    between atoms: _350  and  _351
REMARK  130  A    between atoms: _354  and  _356
REMARK  131  A    between atoms: _356  and  _357
REMARK  132  A    between atoms: _356  and  _359
REMARK  133  A    between atoms: _359  and  _360
REMARK  134  A    between atoms: _360  and  _361
REMARK  135  A    between atoms: _361  and  _362
REMARK  136  A    between atoms: _371  and  _373
REMARK  137  A    between atoms: _373  and  _374
REMARK  138  A    between atoms: _376  and  _378
REMARK  139  A    between atoms: _378  and  _379
REMARK  140  A    between atoms: _378  and  _381
REMARK  141  A    between atoms: _381  and  _382
REMARK                            x       y       z     vdW  Elec       q    Type
REMARK                         _______ _______ _______ _____ _____    ______ ____
ROOT
ATOM      1  O   HOH     1      37.568  58.619  11.246  0.00  0.00    +0.000 OA
ENDROOT
TORSDOF 0
REMARK  Name = ../refined-set-2016/3d51/3d51_pocket.pdb
REMARK  141 active torsions:
REMARK  status: ('A' for Active; 'I' for Inactive)
REMARK    1  A    between atoms: _1  and  _3
REMARK    2  A    between atoms: _14  and  _17
REMARK    3  A    between atoms: _17  and  _18
REMARK    4  A    between atoms: _25  and  _26
REMARK    5  A    between atoms: _33  and  _34
REMARK    6  A    between atoms: _39  and  _41
REMARK    7  A    between atoms: _41  and  _42
REMARK    8  A    between atoms: _44  and  _46
REMARK    9  A    between atoms: _46  and  _47
REMARK   10  A    between atoms: _46  and  _49
REMARK   11  A    between atoms: _49  and  _50
REMARK   12  A    between atoms: _60  and  _62
REMARK   13  A    between atoms: _62  and  _63
REMARK   14  A    between atoms: _62  and  _65
REMARK   15  A    between atoms: _65  and  _66
REMARK   16  A    between atoms: _69  and  _71
REMARK   17  A    between atoms: _71  and  _72
REMARK   18  A    between atoms: _71  and  _74
REMARK   19  A    between atoms: _74  and  _75
REMARK   20  A    between atoms: _80  and  _81
REMARK   21  A    between atoms: _83  and  _85
REMARK   22  A    between atoms: _85  and  _86
REMARK   23  A    between atoms: _85  and  _88
REMARK   24  A    between atoms: _88  and  _89
REMARK   25  A    between atoms: _89  and  _90
REMARK   26  A    between atoms: _93  and  _95
REMARK   27  A    between atoms: _95  and  _96
REMARK   28  A    between atoms: _95  and  _98
REMARK   29  A    between atoms: _98  and  _99
REMARK   30  A    between atoms: _99  and  _100
REMARK   31  A    between atoms: _102  and  _104
REMARK   32  A    between atoms: _104  and  _105
REMARK   33  A    between atoms: _104  and  _107
REMARK   34  A    between atoms: _107  and  _108
REMARK   35  A    between atoms: _111  and  _113
REMARK   36  A    between atoms: _113  and  _114
REMARK   37  A    between atoms: _113  and  _116
REMARK   38  A    between atoms: _116  and  _117
REMARK   39  A    between atoms: _117  and  _119
REMARK   40  A    between atoms: _119  and  ZN_385
REMARK   41  A    between atoms: _121  and  _122
REMARK   42  A    between atoms: _127  and  _129
REMARK   43  A    between atoms: _129  and  _130
REMARK   44  A    between atoms: _129  and  _132
REMARK   45  A    between atoms: _132  and  _133
REMARK   46  A    between atoms: _139  and  _141
REMARK   47  A    between atoms: _141  and  _142
REMARK   48  A    between atoms: _141  and  _144
REMARK   49  A    between atoms: _144  and  _145
REMARK   50  A    between atoms: _145  and  _146
REMARK   51  A    between atoms: _146  and  _147
REMARK   52  A    between atoms: _156  and  _158
REMARK   53  A    between atoms: _158  and  _159
REMARK   54  A    between atoms: _158  and  _161
REMARK   55  A    between atoms: _161  and  _162
REMARK   56  A    between atoms: _167  and  _168
REMARK   57  A    between atoms: _170  and  _172
REMARK   58  A    between atoms: _172  and  _173
REMARK   59  A    between atoms: _172  and  _175
REMARK   60  A    between atoms: _175  and  _176
REMARK   61  A    between atoms: _178  and  _180
REMARK   62  A    between atoms: _180  and  _181
REMARK   63  A    between atoms: _180  and  _183
REMARK   64  A    between atoms: _183  and  _184
REMARK   65  A    between atoms: _189  and  _190
REMARK   66  A    between atoms: _192  and  _194
REMARK   67  A    between atoms: _194  and  _195
REMARK   68  A    between atoms: _194  and  _197
REMARK   69  A    between atoms: _197  and  _198
REMARK   70  A    between atoms: _201  and  _203
REMARK   71  A    between atoms: _203  and  _204
REMARK   72  A    between atoms: _203  and  _206
REMARK   73  A    between atoms: _206  and  _207
REMARK   74  A    between atoms: _210  and  _212
REMARK   75  A    between atoms: _212  and  _213
REMARK   76  A    between atoms: _212  and  _215
REMARK   77  A    between atoms: _215  and  _216
REMARK   78  A    between atoms: _222  and  _224
REMARK   79  A    between atoms: _224  and  _225
REMARK   80  A    between atoms: _224  and  _227
REMARK   81  A    between atoms: _227  and  _228
REMARK   82  A    between atoms: _233  and  _234
REMARK   83  A    between atoms: _236  and  _238
REMARK   84  A    between atoms: _238  and  _239
REMARK   85  A    between atoms: _238  and  _241
REMARK   86  A    between atoms: _241  and  _242
REMARK   87  A    between atoms: _245  and  _247
REMARK   88  A    between atoms: _247  and  _248
REMARK   89  A    between atoms: _247  and  _250
REMARK   90  A    between atoms: _250  and  _251
REMARK   91  A    between atoms: _261  and  _263
REMARK   92  A    between atoms: _263  and  _264
REMARK   93  A    between atoms: _263  and  _266
REMARK   94  A    between atoms: _266  and  _267
REMARK   95  A    between atoms: _272  and  _274
REMARK   96  A    between atoms: _274  and  _275
REMARK   97  A    between atoms: _274  and  _277
REMARK   98  A    between atoms: _277  and  _278
REMARK   99  A    between atoms: _282  and  ZN_385
REMARK  100  A    between atoms: _283  and  _285
REMARK  101  A    between atoms: _285  and  _286
REMARK  102  A    between atoms: _285  and  _288
REMARK  103  A    between atoms: _288  and  _289
REMARK  104  A    between atoms: _292  and  _294
REMARK  105  A    between atoms: _294  and  _295
REMARK  106  A    between atoms: _297  and  _299
REMARK  107  A    between atoms: _299  and  _300
REMARK  108  A    between atoms: _299  and  _302
REMARK  109  A    between atoms: _302  and  _303
REMARK  110  A    between atoms: _306  and  _308
REMARK  111  A    between atoms: _308  and  _309
REMARK  112  A    between atoms: _308  and  _311
REMARK  113  A    between atoms: _311  and  _312
REMARK  114  A    between atoms: _315  and  _317
REMARK  115  A    between atoms: _317  and  _318
REMARK  116  A    between atoms: _321  and  _323
REMARK  117  A    between atoms: _323  and  _324
REMARK  118  A    between atoms: _323  and  _326
REMARK  119  A    between atoms: _326  and  _327
REMARK  120  A    between atoms: _332  and  _333
REMARK  121  A    between atoms: _335  and  _337
REMARK  122  A    between atoms: _337  and  _338
REMARK  123  A    between atoms: _337  and  _340
REMARK  124  A    between atoms: _340  and  _341
REMARK  125  A    between atoms: _344  and  _346
REMARK  126  A    between atoms: _346  and  _347
REMARK  127  A    between atoms: _346  and  _349
REMARK  128  A    between atoms: _349  and  _350
REMARK  129  A    between atoms: _350  and  _351
REMARK  130  A    between atoms: _354  and  _356
REMARK  131  A    between atoms: _356  and  _357
REMARK  132  A    between atoms: _356  and  _359
REMARK  133  A    between atoms: _359  and  _360
REMARK  134  A    between atoms: _360  and  _361
REMARK  135  A    between atoms: _361  and  _362
REMARK  136  A    between atoms: _371  and  _373
REMARK  137  A    between atoms: _373  and  _374
REMARK  138  A    between atoms: _376  and  _378
REMARK  139  A    between atoms: _378  and  _379
REMARK  140  A    between atoms: _378  and  _381
REMARK  141  A    between atoms: _381  and  _382
REMARK                            x       y       z     vdW  Elec       q    Type
REMARK                         _______ _______ _______ _____ _____    ______ ____
ROOT
ATOM      1  O   HOH     1      38.654  61.883   8.629  0.00  0.00    +0.000 OA
ENDROOT
TORSDOF 0
REMARK  Name = ../refined-set-2016/3d51/3d51_pocket.pdb
REMARK  141 active torsions:
REMARK  status: ('A' for Active; 'I' for Inactive)
REMARK    1  A    between atoms: _1  and  _3
REMARK    2  A    between atoms: _14  and  _17
REMARK    3  A    between atoms: _17  and  _18
REMARK    4  A    between atoms: _25  and  _26
REMARK    5  A    between atoms: _33  and  _34
REMARK    6  A    between atoms: _39  and  _41
REMARK    7  A    between atoms: _41  and  _42
REMARK    8  A    between atoms: _44  and  _46
REMARK    9  A    between atoms: _46  and  _47
REMARK   10  A    between atoms: _46  and  _49
REMARK   11  A    between atoms: _49  and  _50
REMARK   12  A    between atoms: _60  and  _62
REMARK   13  A    between atoms: _62  and  _63
REMARK   14  A    between atoms: _62  and  _65
REMARK   15  A    between atoms: _65  and  _66
REMARK   16  A    between atoms: _69  and  _71
REMARK   17  A    between atoms: _71  and  _72
REMARK   18  A    between atoms: _71  and  _74
REMARK   19  A    between atoms: _74  and  _75
REMARK   20  A    between atoms: _80  and  _81
REMARK   21  A    between atoms: _83  and  _85
REMARK   22  A    between atoms: _85  and  _86
REMARK   23  A    between atoms: _85  and  _88
REMARK   24  A    between atoms: _88  and  _89
REMARK   25  A    between atoms: _89  and  _90
REMARK   26  A    between atoms: _93  and  _95
REMARK   27  A    between atoms: _95  and  _96
REMARK   28  A    between atoms: _95  and  _98
REMARK   29  A    between atoms: _98  and  _99
REMARK   30  A    between atoms: _99  and  _100
REMARK   31  A    between atoms: _102  and  _104
REMARK   32  A    between atoms: _104  and  _105
REMARK   33  A    between atoms: _104  and  _107
REMARK   34  A    between atoms: _107  and  _108
REMARK   35  A    between atoms: _111  and  _113
REMARK   36  A    between atoms: _113  and  _114
REMARK   37  A    between atoms: _113  and  _116
REMARK   38  A    between atoms: _116  and  _117
REMARK   39  A    between atoms: _117  and  _119
REMARK   40  A    between atoms: _119  and  ZN_385
REMARK   41  A    between atoms: _121  and  _122
REMARK   42  A    between atoms: _127  and  _129
REMARK   43  A    between atoms: _129  and  _130
REMARK   44  A    between atoms: _129  and  _132
REMARK   45  A    between atoms: _132  and  _133
REMARK   46  A    between atoms: _139  and  _141
REMARK   47  A    between atoms: _141  and  _142
REMARK   48  A    between atoms: _141  and  _144
REMARK   49  A    between atoms: _144  and  _145
REMARK   50  A    between atoms: _145  and  _146
REMARK   51  A    between atoms: _146  and  _147
REMARK   52  A    between atoms: _156  and  _158
REMARK   53  A    between atoms: _158  and  _159
REMARK   54  A    between atoms: _158  and  _161
REMARK   55  A    between atoms: _161  and  _162
REMARK   56  A    between atoms: _167  and  _168
REMARK   57  A    between atoms: _170  and  _172
REMARK   58  A    between atoms: _172  and  _173
REMARK   59  A    between atoms: _172  and  _175
REMARK   60  A    between atoms: _175  and  _176
REMARK   61  A    between atoms: _178  and  _180
REMARK   62  A    between atoms: _180  and  _181
REMARK   63  A    between atoms: _180  and  _183
REMARK   64  A    between atoms: _183  and  _184
REMARK   65  A    between atoms: _189  and  _190
REMARK   66  A    between atoms: _192  and  _194
REMARK   67  A    between atoms: _194  and  _195
REMARK   68  A    between atoms: _194  and  _197
REMARK   69  A    between atoms: _197  and  _198
REMARK   70  A    between atoms: _201  and  _203
REMARK   71  A    between atoms: _203  and  _204
REMARK   72  A    between atoms: _203  and  _206
REMARK   73  A    between atoms: _206  and  _207
REMARK   74  A    between atoms: _210  and  _212
REMARK   75  A    between atoms: _212  and  _213
REMARK   76  A    between atoms: _212  and  _215
REMARK   77  A    between atoms: _215  and  _216
REMARK   78  A    between atoms: _222  and  _224
REMARK   79  A    between atoms: _224  and  _225
REMARK   80  A    between atoms: _224  and  _227
REMARK   81  A    between atoms: _227  and  _228
REMARK   82  A    between atoms: _233  and  _234
REMARK   83  A    between atoms: _236  and  _238
REMARK   84  A    between atoms: _238  and  _239
REMARK   85  A    between atoms: _238  and  _241
REMARK   86  A    between atoms: _241  and  _242
REMARK   87  A    between atoms: _245  and  _247
REMARK   88  A    between atoms: _247  and  _248
REMARK   89  A    between atoms: _247  and  _250
REMARK   90  A    between atoms: _250  and  _251
REMARK   91  A    between atoms: _261  and  _263
REMARK   92  A    between atoms: _263  and  _264
REMARK   93  A    between atoms: _263  and  _266
REMARK   94  A    between atoms: _266  and  _267
REMARK   95  A    between atoms: _272  and  _274
REMARK   96  A    between atoms: _274  and  _275
REMARK   97  A    between atoms: _274  and  _277
REMARK   98  A    between atoms: _277  and  _278
REMARK   99  A    between atoms: _282  and  ZN_385
REMARK  100  A    between atoms: _283  and  _285
REMARK  101  A    between atoms: _285  and  _286
REMARK  102  A    between atoms: _285  and  _288
REMARK  103  A    between atoms: _288  and  _289
REMARK  104  A    between atoms: _292  and  _294
REMARK  105  A    between atoms: _294  and  _295
REMARK  106  A    between atoms: _297  and  _299
REMARK  107  A    between atoms: _299  and  _300
REMARK  108  A    between atoms: _299  and  _302
REMARK  109  A    between atoms: _302  and  _303
REMARK  110  A    between atoms: _306  and  _308
REMARK  111  A    between atoms: _308  and  _309
REMARK  112  A    between atoms: _308  and  _311
REMARK  113  A    between atoms: _311  and  _312
REMARK  114  A    between atoms: _315  and  _317
REMARK  115  A    between atoms: _317  and  _318
REMARK  116  A    between atoms: _321  and  _323
REMARK  117  A    between atoms: _323  and  _324
REMARK  118  A    between atoms: _323  and  _326
REMARK  119  A    between atoms: _326  and  _327
REMARK  120  A    between atoms: _332  and  _333
REMARK  121  A    between atoms: _335  and  _337
REMARK  122  A    between atoms: _337  and  _338
REMARK  123  A    between atoms: _337  and  _340
REMARK  124  A    between atoms: _340  and  _341
REMARK  125  A    between atoms: _344  and  _346
REMARK  126  A    between atoms: _346  and  _347
REMARK  127  A    between atoms: _346  and  _349
REMARK  128  A    between atoms: _349  and  _350
REMARK  129  A    between atoms: _350  and  _351
REMARK  130  A    between atoms: _354  and  _356
REMARK  131  A    between atoms: _356  and  _357
REMARK  132  A    between atoms: _356  and  _359
REMARK  133  A    between atoms: _359  and  _360
REMARK  134  A    between atoms: _360  and  _361
REMARK  135  A    between atoms: _361  and  _362
REMARK  136  A    between atoms: _371  and  _373
REMARK  137  A    between atoms: _373  and  _374
REMARK  138  A    between atoms: _376  and  _378
REMARK  139  A    between atoms: _378  and  _379
REMARK  140  A    between atoms: _378  and  _381
REMARK  141  A    between atoms: _381  and  _382
REMARK                            x       y       z     vdW  Elec       q    Type
REMARK                         _______ _______ _______ _____ _____    ______ ____
ROOT
ATOM      1  O   HOH     1      40.106  62.356   6.319  0.00  0.00    +0.000 OA
ENDROOT
TORSDOF 0
