REMARK  Name = ../refined-set-2016/1sdt/1sdt_pocket.pdb
REMARK  235 active torsions:
REMARK  status: ('A' for Active; 'I' for Inactive)
REMARK    1  A    between atoms: _1  and  _3
REMARK    2  A    between atoms: _3  and  _4
REMARK    3  A    between atoms: _3  and  _6
REMARK    4  A    between atoms: _6  and  _7
REMARK    5  A    between atoms: _7  and  _8
REMARK    6  A    between atoms: _8  and  _9
REMARK    7  A    between atoms: _18  and  _20
REMARK    8  A    between atoms: _20  and  _21
REMARK    9  A    between atoms: _20  and  _23
REMARK   10  A    between atoms: _23  and  _24
REMARK   11  A    between atoms: _27  and  _29
REMARK   12  A    between atoms: _29  and  _30
REMARK   13  A    between atoms: _29  and  _32
REMARK   14  A    between atoms: _32  and  _33
REMARK   15  A    between atoms: _36  and  _38
REMARK   16  A    between atoms: _38  and  _39
REMARK   17  A    between atoms: _38  and  _41
REMARK   18  A    between atoms: _41  and  _42
REMARK   19  A    between atoms: _45  and  _47
REMARK   20  A    between atoms: _47  and  _48
REMARK   21  A    between atoms: _47  and  _50
REMARK   22  A    between atoms: _50  and  _51
REMARK   23  A    between atoms: _54  and  _56
REMARK   24  A    between atoms: _56  and  _57
REMARK   25  A    between atoms: _56  and  _59
REMARK   26  A    between atoms: _59  and  _60
REMARK   27  A    between atoms: _63  and  _65
REMARK   28  A    between atoms: _65  and  _66
REMARK   29  A    between atoms: _68  and  _70
REMARK   30  A    between atoms: _70  and  _71
REMARK   31  A    between atoms: _74  and  _76
REMARK   32  A    between atoms: _76  and  _77
REMARK   33  A    between atoms: _76  and  _79
REMARK   34  A    between atoms: _79  and  _80
REMARK   35  A    between atoms: _83  and  _85
REMARK   36  A    between atoms: _85  and  _86
REMARK   37  A    between atoms: _85  and  _88
REMARK   38  A    between atoms: _88  and  _89
REMARK   39  A    between atoms: _92  and  _94
REMARK   40  A    between atoms: _94  and  _95
REMARK   41  A    between atoms: _94  and  _97
REMARK   42  A    between atoms: _97  and  _98
REMARK   43  A    between atoms: _101  and  _103
REMARK   44  A    between atoms: _103  and  _104
REMARK   45  A    between atoms: _103  and  _106
REMARK   46  A    between atoms: _109  and  _111
REMARK   47  A    between atoms: _111  and  _112
REMARK   48  A    between atoms: _111  and  _114
REMARK   49  A    between atoms: _114  and  _115
REMARK   50  A    between atoms: _115  and  _116
REMARK   51  A    between atoms: _116  and  _117
REMARK   52  A    between atoms: _117  and  _118
REMARK   53  A    between atoms: _122  and  _124
REMARK   54  A    between atoms: _124  and  _125
REMARK   55  A    between atoms: _124  and  _127
REMARK   56  A    between atoms: _127  and  _128
REMARK   57  A    between atoms: _128  and  _129
REMARK   58  A    between atoms: _131  and  _133
REMARK   59  A    between atoms: _133  and  _134
REMARK   60  A    between atoms: _133  and  _136
REMARK   61  A    between atoms: _136  and  _137
REMARK   62  A    between atoms: _140  and  _142
REMARK   63  A    between atoms: _142  and  _143
REMARK   64  A    between atoms: _145  and  _147
REMARK   65  A    between atoms: _147  and  _148
REMARK   66  A    between atoms: _150  and  _152
REMARK   67  A    between atoms: _152  and  _153
REMARK   68  A    between atoms: _152  and  _155
REMARK   69  A    between atoms: _155  and  _156
REMARK   70  A    between atoms: _159  and  _161
REMARK   71  A    between atoms: _161  and  _162
REMARK   72  A    between atoms: _164  and  _166
REMARK   73  A    between atoms: _166  and  _167
REMARK   74  A    between atoms: _169  and  _171
REMARK   75  A    between atoms: _171  and  _172
REMARK   76  A    between atoms: _171  and  _174
REMARK   77  A    between atoms: _174  and  _175
REMARK   78  A    between atoms: _181  and  _183
REMARK   79  A    between atoms: _183  and  _184
REMARK   80  A    between atoms: _183  and  _186
REMARK   81  A    between atoms: _186  and  _187
REMARK   82  A    between atoms: _190  and  _192
REMARK   83  A    between atoms: _192  and  _193
REMARK   84  A    between atoms: _192  and  _195
REMARK   85  A    between atoms: _198  and  _200
REMARK   86  A    between atoms: _200  and  _201
REMARK   87  A    between atoms: _200  and  _203
REMARK   88  A    between atoms: _203  and  _204
REMARK   89  A    between atoms: _207  and  _209
REMARK   90  A    between atoms: _209  and  _210
REMARK   91  A    between atoms: _209  and  _212
REMARK   92  A    between atoms: _212  and  _213
REMARK   93  A    between atoms: _217  and  _218
REMARK   94  A    between atoms: _223  and  _225
REMARK   95  A    between atoms: _225  and  _226
REMARK   96  A    between atoms: _225  and  _228
REMARK   97  A    between atoms: _231  and  _233
REMARK   98  A    between atoms: _233  and  _234
REMARK   99  A    between atoms: _233  and  _236
REMARK  100  A    between atoms: _236  and  _237
REMARK  101  A    between atoms: _242  and  _244
REMARK  102  A    between atoms: _244  and  _245
REMARK  103  A    between atoms: _244  and  _247
REMARK  104  A    between atoms: _247  and  _248
REMARK  105  A    between atoms: _251  and  _253
REMARK  106  A    between atoms: _253  and  _254
REMARK  107  A    between atoms: _253  and  _256
REMARK  108  A    between atoms: _256  and  _257
REMARK  109  A    between atoms: _260  and  _262
REMARK  110  A    between atoms: _262  and  _263
REMARK  111  A    between atoms: _265  and  _267
REMARK  112  A    between atoms: _267  and  _268
REMARK  113  A    between atoms: _267  and  _270
REMARK  114  A    between atoms: _270  and  _271
REMARK  115  A    between atoms: _271  and  _272
REMARK  116  A    between atoms: _272  and  _273
REMARK  117  A    between atoms: _282  and  _284
REMARK  118  A    between atoms: _284  and  _285
REMARK  119  A    between atoms: _284  and  _287
REMARK  120  A    between atoms: _288  and  _289
REMARK  121  A    between atoms: _289  and  _290
REMARK  122  A    between atoms: _299  and  _301
REMARK  123  A    between atoms: _301  and  _302
REMARK  124  A    between atoms: _301  and  _304
REMARK  125  A    between atoms: _304  and  _305
REMARK  126  A    between atoms: _308  and  _310
REMARK  127  A    between atoms: _310  and  _311
REMARK  128  A    between atoms: _310  and  _313
REMARK  129  A    between atoms: _313  and  _314
REMARK  130  A    between atoms: _317  and  _319
REMARK  131  A    between atoms: _319  and  _320
REMARK  132  A    between atoms: _319  and  _322
REMARK  133  A    between atoms: _322  and  _323
REMARK  134  A    between atoms: _326  and  _328
REMARK  135  A    between atoms: _328  and  _329
REMARK  136  A    between atoms: _328  and  _331
REMARK  137  A    between atoms: _331  and  _332
REMARK  138  A    between atoms: _335  and  _337
REMARK  139  A    between atoms: _337  and  _338
REMARK  140  A    between atoms: _340  and  _342
REMARK  141  A    between atoms: _342  and  _343
REMARK  142  A    between atoms: _346  and  _348
REMARK  143  A    between atoms: _348  and  _349
REMARK  144  A    between atoms: _348  and  _351
REMARK  145  A    between atoms: _351  and  _352
REMARK  146  A    between atoms: _355  and  _357
REMARK  147  A    between atoms: _357  and  _358
REMARK  148  A    between atoms: _357  and  _360
REMARK  149  A    between atoms: _360  and  _361
REMARK  150  A    between atoms: _364  and  _366
REMARK  151  A    between atoms: _366  and  _367
REMARK  152  A    between atoms: _366  and  _369
REMARK  153  A    between atoms: _369  and  _370
REMARK  154  A    between atoms: _373  and  _375
REMARK  155  A    between atoms: _375  and  _376
REMARK  156  A    between atoms: _375  and  _378
REMARK  157  A    between atoms: _381  and  _383
REMARK  158  A    between atoms: _383  and  _384
REMARK  159  A    between atoms: _383  and  _386
REMARK  160  A    between atoms: _386  and  _387
REMARK  161  A    between atoms: _390  and  _392
REMARK  162  A    between atoms: _392  and  _393
REMARK  163  A    between atoms: _392  and  _395
REMARK  164  A    between atoms: _395  and  _396
REMARK  165  A    between atoms: _396  and  _397
REMARK  166  A    between atoms: _397  and  _398
REMARK  167  A    between atoms: _398  and  _399
REMARK  168  A    between atoms: _403  and  _405
REMARK  169  A    between atoms: _405  and  _406
REMARK  170  A    between atoms: _405  and  _408
REMARK  171  A    between atoms: _408  and  _409
REMARK  172  A    between atoms: _409  and  _410
REMARK  173  A    between atoms: _412  and  _414
REMARK  174  A    between atoms: _414  and  _415
REMARK  175  A    between atoms: _414  and  _417
REMARK  176  A    between atoms: _417  and  _418
REMARK  177  A    between atoms: _421  and  _423
REMARK  178  A    between atoms: _423  and  _424
REMARK  179  A    between atoms: _426  and  _428
REMARK  180  A    between atoms: _428  and  _429
REMARK  181  A    between atoms: _431  and  _433
REMARK  182  A    between atoms: _433  and  _434
REMARK  183  A    between atoms: _433  and  _436
REMARK  184  A    between atoms: _436  and  _437
REMARK  185  A    between atoms: _440  and  _442
REMARK  186  A    between atoms: _442  and  _443
REMARK  187  A    between atoms: _445  and  _447
REMARK  188  A    between atoms: _447  and  _448
REMARK  189  A    between atoms: _450  and  _452
REMARK  190  A    between atoms: _452  and  _453
REMARK  191  A    between atoms: _452  and  _455
REMARK  192  A    between atoms: _455  and  _456
REMARK  193  A    between atoms: _462  and  _464
REMARK  194  A    between atoms: _464  and  _465
REMARK  195  A    between atoms: _464  and  _467
REMARK  196  A    between atoms: _467  and  _468
REMARK  197  A    between atoms: _471  and  _473
REMARK  198  A    between atoms: _473  and  _474
REMARK  199  A    between atoms: _473  and  _476
REMARK  200  A    between atoms: _479  and  _481
REMARK  201  A    between atoms: _481  and  _482
REMARK  202  A    between atoms: _481  and  _484
REMARK  203  A    between atoms: _484  and  _485
REMARK  204  A    between atoms: _488  and  _490
REMARK  205  A    between atoms: _490  and  _491
REMARK  206  A    between atoms: _490  and  _493
REMARK  207  A    between atoms: _493  and  _494
REMARK  208  A    between atoms: _498  and  _499
REMARK  209  A    between atoms: _504  and  _506
REMARK  210  A    between atoms: _506  and  _507
REMARK  211  A    between atoms: _506  and  _509
REMARK  212  A    between atoms: _512  and  _514
REMARK  213  A    between atoms: _514  and  _515
REMARK  214  A    between atoms: _514  and  _517
REMARK  215  A    between atoms: _517  and  _518
REMARK  216  A    between atoms: _523  and  _525
REMARK  217  A    between atoms: _525  and  _526
REMARK  218  A    between atoms: _525  and  _528
REMARK  219  A    between atoms: _528  and  _529
REMARK  220  A    between atoms: _532  and  _534
REMARK  221  A    between atoms: _534  and  _535
REMARK  222  A    between atoms: _534  and  _537
REMARK  223  A    between atoms: _537  and  _538
REMARK  224  A    between atoms: _541  and  _543
REMARK  225  A    between atoms: _543  and  _544
REMARK  226  A    between atoms: _546  and  _548
REMARK  227  A    between atoms: _548  and  _549
REMARK  228  A    between atoms: _548  and  _551
REMARK  229  A    between atoms: _551  and  _552
REMARK  230  A    between atoms: _552  and  _553
REMARK  231  A    between atoms: _553  and  _554
REMARK  232  A    between atoms: _563  and  _565
REMARK  233  A    between atoms: _565  and  _566
REMARK  234  A    between atoms: _565  and  _568
REMARK  235  A    between atoms: _568  and  _569
REMARK                            x       y       z     vdW  Elec       q    Type
REMARK                         _______ _______ _______ _____ _____    ______ ____
ROOT
ATOM      1  NE  ARG A   1      20.524   6.795   8.071  0.00  0.00    -0.265 N 
ATOM      2  CZ  ARG A   1      19.671   7.382   8.892  0.00  0.00    +0.342 C 
ATOM      3  NH2 ARG A   1      19.872   7.414  10.202  0.00  0.00    -0.292 N 
ATOM      4 HH21 ARG A   1      19.182   7.884  10.823  0.00  0.00    +0.255 HD
ATOM      5 HH22 ARG A   1      20.719   6.969  10.609  0.00  0.00    +0.255 HD
ATOM      6  NH1 ARG A   1      18.601   7.947   8.401  0.00  0.00    -0.292 N 
ATOM      7 HH11 ARG A   1      17.921   8.413   9.035  0.00  0.00    +0.255 HD
ATOM      8 HH12 ARG A   1      18.429   7.931   7.375  0.00  0.00    +0.255 HD
ATOM      9  HE  ARG A   1      20.327   6.794   7.050  0.00  0.00    +0.259 HD
ENDROOT
BRANCH   1  10
ATOM     10  CD  ARG A   1      21.745   6.143   8.566  0.00  0.00    +0.174 C 
BRANCH  10  11
ATOM     11  CG  ARG A   1      22.479   5.603   7.339  0.00  0.00    +0.045 C 
BRANCH  11  12
ATOM     12  CB  ARG A   1      23.737   4.888   7.733  0.00  0.00    +0.029 C 
BRANCH  12  13
ATOM     13  CA  ARG A   1      24.516   4.243   6.573  0.00  0.00    +0.133 C 
BRANCH  13  14
ATOM     14  N   ARG A   1      23.797   3.077   6.091  0.00  0.00    -0.239 NA
ATOM     15  H   ARG A   1      22.868   2.840   6.494  0.00  0.00    +0.142 HD
ENDBRANCH  13  14
BRANCH  13  16
ATOM     16  C   ARG A   1      25.915   3.904   7.036  0.00  0.00    +0.224 C 
ATOM     17  O   ARG A   1      26.101   2.938   7.783  0.00  0.00    -0.287 OA
ENDBRANCH  13  16
ENDBRANCH  12  13
ENDBRANCH  11  12
ENDBRANCH  10  11
ENDBRANCH   1  10
TORSDOF 6
REMARK  Name = ../refined-set-2016/1sdt/1sdt_pocket.pdb
REMARK  235 active torsions:
REMARK  status: ('A' for Active; 'I' for Inactive)
REMARK    1  A    between atoms: _1  and  _3
REMARK    2  A    between atoms: _3  and  _4
REMARK    3  A    between atoms: _3  and  _6
REMARK    4  A    between atoms: _6  and  _7
REMARK    5  A    between atoms: _7  and  _8
REMARK    6  A    between atoms: _8  and  _9
REMARK    7  A    between atoms: _18  and  _20
REMARK    8  A    between atoms: _20  and  _21
REMARK    9  A    between atoms: _20  and  _23
REMARK   10  A    between atoms: _23  and  _24
REMARK   11  A    between atoms: _27  and  _29
REMARK   12  A    between atoms: _29  and  _30
REMARK   13  A    between atoms: _29  and  _32
REMARK   14  A    between atoms: _32  and  _33
REMARK   15  A    between atoms: _36  and  _38
REMARK   16  A    between atoms: _38  and  _39
REMARK   17  A    between atoms: _38  and  _41
REMARK   18  A    between atoms: _41  and  _42
REMARK   19  A    between atoms: _45  and  _47
REMARK   20  A    between atoms: _47  and  _48
REMARK   21  A    between atoms: _47  and  _50
REMARK   22  A    between atoms: _50  and  _51
REMARK   23  A    between atoms: _54  and  _56
REMARK   24  A    between atoms: _56  and  _57
REMARK   25  A    between atoms: _56  and  _59
REMARK   26  A    between atoms: _59  and  _60
REMARK   27  A    between atoms: _63  and  _65
REMARK   28  A    between atoms: _65  and  _66
REMARK   29  A    between atoms: _68  and  _70
REMARK   30  A    between atoms: _70  and  _71
REMARK   31  A    between atoms: _74  and  _76
REMARK   32  A    between atoms: _76  and  _77
REMARK   33  A    between atoms: _76  and  _79
REMARK   34  A    between atoms: _79  and  _80
REMARK   35  A    between atoms: _83  and  _85
REMARK   36  A    between atoms: _85  and  _86
REMARK   37  A    between atoms: _85  and  _88
REMARK   38  A    between atoms: _88  and  _89
REMARK   39  A    between atoms: _92  and  _94
REMARK   40  A    between atoms: _94  and  _95
REMARK   41  A    between atoms: _94  and  _97
REMARK   42  A    between atoms: _97  and  _98
REMARK   43  A    between atoms: _101  and  _103
REMARK   44  A    between atoms: _103  and  _104
REMARK   45  A    between atoms: _103  and  _106
REMARK   46  A    between atoms: _109  and  _111
REMARK   47  A    between atoms: _111  and  _112
REMARK   48  A    between atoms: _111  and  _114
REMARK   49  A    between atoms: _114  and  _115
REMARK   50  A    between atoms: _115  and  _116
REMARK   51  A    between atoms: _116  and  _117
REMARK   52  A    between atoms: _117  and  _118
REMARK   53  A    between atoms: _122  and  _124
REMARK   54  A    between atoms: _124  and  _125
REMARK   55  A    between atoms: _124  and  _127
REMARK   56  A    between atoms: _127  and  _128
REMARK   57  A    between atoms: _128  and  _129
REMARK   58  A    between atoms: _131  and  _133
REMARK   59  A    between atoms: _133  and  _134
REMARK   60  A    between atoms: _133  and  _136
REMARK   61  A    between atoms: _136  and  _137
REMARK   62  A    between atoms: _140  and  _142
REMARK   63  A    between atoms: _142  and  _143
REMARK   64  A    between atoms: _145  and  _147
REMARK   65  A    between atoms: _147  and  _148
REMARK   66  A    between atoms: _150  and  _152
REMARK   67  A    between atoms: _152  and  _153
REMARK   68  A    between atoms: _152  and  _155
REMARK   69  A    between atoms: _155  and  _156
REMARK   70  A    between atoms: _159  and  _161
REMARK   71  A    between atoms: _161  and  _162
REMARK   72  A    between atoms: _164  and  _166
REMARK   73  A    between atoms: _166  and  _167
REMARK   74  A    between atoms: _169  and  _171
REMARK   75  A    between atoms: _171  and  _172
REMARK   76  A    between atoms: _171  and  _174
REMARK   77  A    between atoms: _174  and  _175
REMARK   78  A    between atoms: _181  and  _183
REMARK   79  A    between atoms: _183  and  _184
REMARK   80  A    between atoms: _183  and  _186
REMARK   81  A    between atoms: _186  and  _187
REMARK   82  A    between atoms: _190  and  _192
REMARK   83  A    between atoms: _192  and  _193
REMARK   84  A    between atoms: _192  and  _195
REMARK   85  A    between atoms: _198  and  _200
REMARK   86  A    between atoms: _200  and  _201
REMARK   87  A    between atoms: _200  and  _203
REMARK   88  A    between atoms: _203  and  _204
REMARK   89  A    between atoms: _207  and  _209
REMARK   90  A    between atoms: _209  and  _210
REMARK   91  A    between atoms: _209  and  _212
REMARK   92  A    between atoms: _212  and  _213
REMARK   93  A    between atoms: _217  and  _218
REMARK   94  A    between atoms: _223  and  _225
REMARK   95  A    between atoms: _225  and  _226
REMARK   96  A    between atoms: _225  and  _228
REMARK   97  A    between atoms: _231  and  _233
REMARK   98  A    between atoms: _233  and  _234
REMARK   99  A    between atoms: _233  and  _236
REMARK  100  A    between atoms: _236  and  _237
REMARK  101  A    between atoms: _242  and  _244
REMARK  102  A    between atoms: _244  and  _245
REMARK  103  A    between atoms: _244  and  _247
REMARK  104  A    between atoms: _247  and  _248
REMARK  105  A    between atoms: _251  and  _253
REMARK  106  A    between atoms: _253  and  _254
REMARK  107  A    between atoms: _253  and  _256
REMARK  108  A    between atoms: _256  and  _257
REMARK  109  A    between atoms: _260  and  _262
REMARK  110  A    between atoms: _262  and  _263
REMARK  111  A    between atoms: _265  and  _267
REMARK  112  A    between atoms: _267  and  _268
REMARK  113  A    between atoms: _267  and  _270
REMARK  114  A    between atoms: _270  and  _271
REMARK  115  A    between atoms: _271  and  _272
REMARK  116  A    between atoms: _272  and  _273
REMARK  117  A    between atoms: _282  and  _284
REMARK  118  A    between atoms: _284  and  _285
REMARK  119  A    between atoms: _284  and  _287
REMARK  120  A    between atoms: _288  and  _289
REMARK  121  A    between atoms: _289  and  _290
REMARK  122  A    between atoms: _299  and  _301
REMARK  123  A    between atoms: _301  and  _302
REMARK  124  A    between atoms: _301  and  _304
REMARK  125  A    between atoms: _304  and  _305
REMARK  126  A    between atoms: _308  and  _310
REMARK  127  A    between atoms: _310  and  _311
REMARK  128  A    between atoms: _310  and  _313
REMARK  129  A    between atoms: _313  and  _314
REMARK  130  A    between atoms: _317  and  _319
REMARK  131  A    between atoms: _319  and  _320
REMARK  132  A    between atoms: _319  and  _322
REMARK  133  A    between atoms: _322  and  _323
REMARK  134  A    between atoms: _326  and  _328
REMARK  135  A    between atoms: _328  and  _329
REMARK  136  A    between atoms: _328  and  _331
REMARK  137  A    between atoms: _331  and  _332
REMARK  138  A    between atoms: _335  and  _337
REMARK  139  A    between atoms: _337  and  _338
REMARK  140  A    between atoms: _340  and  _342
REMARK  141  A    between atoms: _342  and  _343
REMARK  142  A    between atoms: _346  and  _348
REMARK  143  A    between atoms: _348  and  _349
REMARK  144  A    between atoms: _348  and  _351
REMARK  145  A    between atoms: _351  and  _352
REMARK  146  A    between atoms: _355  and  _357
REMARK  147  A    between atoms: _357  and  _358
REMARK  148  A    between atoms: _357  and  _360
REMARK  149  A    between atoms: _360  and  _361
REMARK  150  A    between atoms: _364  and  _366
REMARK  151  A    between atoms: _366  and  _367
REMARK  152  A    between atoms: _366  and  _369
REMARK  153  A    between atoms: _369  and  _370
REMARK  154  A    between atoms: _373  and  _375
REMARK  155  A    between atoms: _375  and  _376
REMARK  156  A    between atoms: _375  and  _378
REMARK  157  A    between atoms: _381  and  _383
REMARK  158  A    between atoms: _383  and  _384
REMARK  159  A    between atoms: _383  and  _386
REMARK  160  A    between atoms: _386  and  _387
REMARK  161  A    between atoms: _390  and  _392
REMARK  162  A    between atoms: _392  and  _393
REMARK  163  A    between atoms: _392  and  _395
REMARK  164  A    between atoms: _395  and  _396
REMARK  165  A    between atoms: _396  and  _397
REMARK  166  A    between atoms: _397  and  _398
REMARK  167  A    between atoms: _398  and  _399
REMARK  168  A    between atoms: _403  and  _405
REMARK  169  A    between atoms: _405  and  _406
REMARK  170  A    between atoms: _405  and  _408
REMARK  171  A    between atoms: _408  and  _409
REMARK  172  A    between atoms: _409  and  _410
REMARK  173  A    between atoms: _412  and  _414
REMARK  174  A    between atoms: _414  and  _415
REMARK  175  A    between atoms: _414  and  _417
REMARK  176  A    between atoms: _417  and  _418
REMARK  177  A    between atoms: _421  and  _423
REMARK  178  A    between atoms: _423  and  _424
REMARK  179  A    between atoms: _426  and  _428
REMARK  180  A    between atoms: _428  and  _429
REMARK  181  A    between atoms: _431  and  _433
REMARK  182  A    between atoms: _433  and  _434
REMARK  183  A    between atoms: _433  and  _436
REMARK  184  A    between atoms: _436  and  _437
REMARK  185  A    between atoms: _440  and  _442
REMARK  186  A    between atoms: _442  and  _443
REMARK  187  A    between atoms: _445  and  _447
REMARK  188  A    between atoms: _447  and  _448
REMARK  189  A    between atoms: _450  and  _452
REMARK  190  A    between atoms: _452  and  _453
REMARK  191  A    between atoms: _452  and  _455
REMARK  192  A    between atoms: _455  and  _456
REMARK  193  A    between atoms: _462  and  _464
REMARK  194  A    between atoms: _464  and  _465
REMARK  195  A    between atoms: _464  and  _467
REMARK  196  A    between atoms: _467  and  _468
REMARK  197  A    between atoms: _471  and  _473
REMARK  198  A    between atoms: _473  and  _474
REMARK  199  A    between atoms: _473  and  _476
REMARK  200  A    between atoms: _479  and  _481
REMARK  201  A    between atoms: _481  and  _482
REMARK  202  A    between atoms: _481  and  _484
REMARK  203  A    between atoms: _484  and  _485
REMARK  204  A    between atoms: _488  and  _490
REMARK  205  A    between atoms: _490  and  _491
REMARK  206  A    between atoms: _490  and  _493
REMARK  207  A    between atoms: _493  and  _494
REMARK  208  A    between atoms: _498  and  _499
REMARK  209  A    between atoms: _504  and  _506
REMARK  210  A    between atoms: _506  and  _507
REMARK  211  A    between atoms: _506  and  _509
REMARK  212  A    between atoms: _512  and  _514
REMARK  213  A    between atoms: _514  and  _515
REMARK  214  A    between atoms: _514  and  _517
REMARK  215  A    between atoms: _517  and  _518
REMARK  216  A    between atoms: _523  and  _525
REMARK  217  A    between atoms: _525  and  _526
REMARK  218  A    between atoms: _525  and  _528
REMARK  219  A    between atoms: _528  and  _529
REMARK  220  A    between atoms: _532  and  _534
REMARK  221  A    between atoms: _534  and  _535
REMARK  222  A    between atoms: _534  and  _537
REMARK  223  A    between atoms: _537  and  _538
REMARK  224  A    between atoms: _541  and  _543
REMARK  225  A    between atoms: _543  and  _544
REMARK  226  A    between atoms: _546  and  _548
REMARK  227  A    between atoms: _548  and  _549
REMARK  228  A    between atoms: _548  and  _551
REMARK  229  A    between atoms: _551  and  _552
REMARK  230  A    between atoms: _552  and  _553
REMARK  231  A    between atoms: _553  and  _554
REMARK  232  A    between atoms: _563  and  _565
REMARK  233  A    between atoms: _565  and  _566
REMARK  234  A    between atoms: _565  and  _568
REMARK  235  A    between atoms: _568  and  _569
REMARK                            x       y       z     vdW  Elec       q    Type
REMARK                         _______ _______ _______ _____ _____    ______ ____
ROOT
ATOM      1  CA  LEU A   1      28.366   4.409  10.823  0.00  0.00    +0.133 C 
ENDROOT
BRANCH   1   2
ATOM      2  N   LEU A   1      28.219   4.151   9.406  0.00  0.00    -0.239 NA
ATOM      3  H   LEU A   1      27.736   3.270   9.139  0.00  0.00    +0.142 HD
ENDBRANCH   1   2
BRANCH   1   4
ATOM      4  C   LEU A   1      29.638   3.730  11.331  0.00  0.00    +0.224 C 
ATOM      5  O   LEU A   1      29.911   2.583  10.998  0.00  0.00    -0.287 OA
ENDBRANCH   1   4
BRANCH   1   6
ATOM      6  CB  LEU A   1      27.172   3.835  11.595  0.00  0.00    +0.025 C 
BRANCH   6   7
ATOM      7  CG  LEU A   1      25.846   4.551  11.265  0.00  0.00    +0.002 C 
ATOM      8  CD2 LEU A   1      24.736   3.801  11.997  0.00  0.00    +0.000 C 
ATOM      9  CD1 LEU A   1      25.815   6.008  11.629  0.00  0.00    +0.000 C 
ENDBRANCH   6   7
ENDBRANCH   1   6
TORSDOF 4
REMARK  Name = ../refined-set-2016/1sdt/1sdt_pocket.pdb
REMARK  235 active torsions:
REMARK  status: ('A' for Active; 'I' for Inactive)
REMARK    1  A    between atoms: _1  and  _3
REMARK    2  A    between atoms: _3  and  _4
REMARK    3  A    between atoms: _3  and  _6
REMARK    4  A    between atoms: _6  and  _7
REMARK    5  A    between atoms: _7  and  _8
REMARK    6  A    between atoms: _8  and  _9
REMARK    7  A    between atoms: _18  and  _20
REMARK    8  A    between atoms: _20  and  _21
REMARK    9  A    between atoms: _20  and  _23
REMARK   10  A    between atoms: _23  and  _24
REMARK   11  A    between atoms: _27  and  _29
REMARK   12  A    between atoms: _29  and  _30
REMARK   13  A    between atoms: _29  and  _32
REMARK   14  A    between atoms: _32  and  _33
REMARK   15  A    between atoms: _36  and  _38
REMARK   16  A    between atoms: _38  and  _39
REMARK   17  A    between atoms: _38  and  _41
REMARK   18  A    between atoms: _41  and  _42
REMARK   19  A    between atoms: _45  and  _47
REMARK   20  A    between atoms: _47  and  _48
REMARK   21  A    between atoms: _47  and  _50
REMARK   22  A    between atoms: _50  and  _51
REMARK   23  A    between atoms: _54  and  _56
REMARK   24  A    between atoms: _56  and  _57
REMARK   25  A    between atoms: _56  and  _59
REMARK   26  A    between atoms: _59  and  _60
REMARK   27  A    between atoms: _63  and  _65
REMARK   28  A    between atoms: _65  and  _66
REMARK   29  A    between atoms: _68  and  _70
REMARK   30  A    between atoms: _70  and  _71
REMARK   31  A    between atoms: _74  and  _76
REMARK   32  A    between atoms: _76  and  _77
REMARK   33  A    between atoms: _76  and  _79
REMARK   34  A    between atoms: _79  and  _80
REMARK   35  A    between atoms: _83  and  _85
REMARK   36  A    between atoms: _85  and  _86
REMARK   37  A    between atoms: _85  and  _88
REMARK   38  A    between atoms: _88  and  _89
REMARK   39  A    between atoms: _92  and  _94
REMARK   40  A    between atoms: _94  and  _95
REMARK   41  A    between atoms: _94  and  _97
REMARK   42  A    between atoms: _97  and  _98
REMARK   43  A    between atoms: _101  and  _103
REMARK   44  A    between atoms: _103  and  _104
REMARK   45  A    between atoms: _103  and  _106
REMARK   46  A    between atoms: _109  and  _111
REMARK   47  A    between atoms: _111  and  _112
REMARK   48  A    between atoms: _111  and  _114
REMARK   49  A    between atoms: _114  and  _115
REMARK   50  A    between atoms: _115  and  _116
REMARK   51  A    between atoms: _116  and  _117
REMARK   52  A    between atoms: _117  and  _118
REMARK   53  A    between atoms: _122  and  _124
REMARK   54  A    between atoms: _124  and  _125
REMARK   55  A    between atoms: _124  and  _127
REMARK   56  A    between atoms: _127  and  _128
REMARK   57  A    between atoms: _128  and  _129
REMARK   58  A    between atoms: _131  and  _133
REMARK   59  A    between atoms: _133  and  _134
REMARK   60  A    between atoms: _133  and  _136
REMARK   61  A    between atoms: _136  and  _137
REMARK   62  A    between atoms: _140  and  _142
REMARK   63  A    between atoms: _142  and  _143
REMARK   64  A    between atoms: _145  and  _147
REMARK   65  A    between atoms: _147  and  _148
REMARK   66  A    between atoms: _150  and  _152
REMARK   67  A    between atoms: _152  and  _153
REMARK   68  A    between atoms: _152  and  _155
REMARK   69  A    between atoms: _155  and  _156
REMARK   70  A    between atoms: _159  and  _161
REMARK   71  A    between atoms: _161  and  _162
REMARK   72  A    between atoms: _164  and  _166
REMARK   73  A    between atoms: _166  and  _167
REMARK   74  A    between atoms: _169  and  _171
REMARK   75  A    between atoms: _171  and  _172
REMARK   76  A    between atoms: _171  and  _174
REMARK   77  A    between atoms: _174  and  _175
REMARK   78  A    between atoms: _181  and  _183
REMARK   79  A    between atoms: _183  and  _184
REMARK   80  A    between atoms: _183  and  _186
REMARK   81  A    between atoms: _186  and  _187
REMARK   82  A    between atoms: _190  and  _192
REMARK   83  A    between atoms: _192  and  _193
REMARK   84  A    between atoms: _192  and  _195
REMARK   85  A    between atoms: _198  and  _200
REMARK   86  A    between atoms: _200  and  _201
REMARK   87  A    between atoms: _200  and  _203
REMARK   88  A    between atoms: _203  and  _204
REMARK   89  A    between atoms: _207  and  _209
REMARK   90  A    between atoms: _209  and  _210
REMARK   91  A    between atoms: _209  and  _212
REMARK   92  A    between atoms: _212  and  _213
REMARK   93  A    between atoms: _217  and  _218
REMARK   94  A    between atoms: _223  and  _225
REMARK   95  A    between atoms: _225  and  _226
REMARK   96  A    between atoms: _225  and  _228
REMARK   97  A    between atoms: _231  and  _233
REMARK   98  A    between atoms: _233  and  _234
REMARK   99  A    between atoms: _233  and  _236
REMARK  100  A    between atoms: _236  and  _237
REMARK  101  A    between atoms: _242  and  _244
REMARK  102  A    between atoms: _244  and  _245
REMARK  103  A    between atoms: _244  and  _247
REMARK  104  A    between atoms: _247  and  _248
REMARK  105  A    between atoms: _251  and  _253
REMARK  106  A    between atoms: _253  and  _254
REMARK  107  A    between atoms: _253  and  _256
REMARK  108  A    between atoms: _256  and  _257
REMARK  109  A    between atoms: _260  and  _262
REMARK  110  A    between atoms: _262  and  _263
REMARK  111  A    between atoms: _265  and  _267
REMARK  112  A    between atoms: _267  and  _268
REMARK  113  A    between atoms: _267  and  _270
REMARK  114  A    between atoms: _270  and  _271
REMARK  115  A    between atoms: _271  and  _272
REMARK  116  A    between atoms: _272  and  _273
REMARK  117  A    between atoms: _282  and  _284
REMARK  118  A    between atoms: _284  and  _285
REMARK  119  A    between atoms: _284  and  _287
REMARK  120  A    between atoms: _288  and  _289
REMARK  121  A    between atoms: _289  and  _290
REMARK  122  A    between atoms: _299  and  _301
REMARK  123  A    between atoms: _301  and  _302
REMARK  124  A    between atoms: _301  and  _304
REMARK  125  A    between atoms: _304  and  _305
REMARK  126  A    between atoms: _308  and  _310
REMARK  127  A    between atoms: _310  and  _311
REMARK  128  A    between atoms: _310  and  _313
REMARK  129  A    between atoms: _313  and  _314
REMARK  130  A    between atoms: _317  and  _319
REMARK  131  A    between atoms: _319  and  _320
REMARK  132  A    between atoms: _319  and  _322
REMARK  133  A    between atoms: _322  and  _323
REMARK  134  A    between atoms: _326  and  _328
REMARK  135  A    between atoms: _328  and  _329
REMARK  136  A    between atoms: _328  and  _331
REMARK  137  A    between atoms: _331  and  _332
REMARK  138  A    between atoms: _335  and  _337
REMARK  139  A    between atoms: _337  and  _338
REMARK  140  A    between atoms: _340  and  _342
REMARK  141  A    between atoms: _342  and  _343
REMARK  142  A    between atoms: _346  and  _348
REMARK  143  A    between atoms: _348  and  _349
REMARK  144  A    between atoms: _348  and  _351
REMARK  145  A    between atoms: _351  and  _352
REMARK  146  A    between atoms: _355  and  _357
REMARK  147  A    between atoms: _357  and  _358
REMARK  148  A    between atoms: _357  and  _360
REMARK  149  A    between atoms: _360  and  _361
REMARK  150  A    between atoms: _364  and  _366
REMARK  151  A    between atoms: _366  and  _367
REMARK  152  A    between atoms: _366  and  _369
REMARK  153  A    between atoms: _369  and  _370
REMARK  154  A    between atoms: _373  and  _375
REMARK  155  A    between atoms: _375  and  _376
REMARK  156  A    between atoms: _375  and  _378
REMARK  157  A    between atoms: _381  and  _383
REMARK  158  A    between atoms: _383  and  _384
REMARK  159  A    between atoms: _383  and  _386
REMARK  160  A    between atoms: _386  and  _387
REMARK  161  A    between atoms: _390  and  _392
REMARK  162  A    between atoms: _392  and  _393
REMARK  163  A    between atoms: _392  and  _395
REMARK  164  A    between atoms: _395  and  _396
REMARK  165  A    between atoms: _396  and  _397
REMARK  166  A    between atoms: _397  and  _398
REMARK  167  A    between atoms: _398  and  _399
REMARK  168  A    between atoms: _403  and  _405
REMARK  169  A    between atoms: _405  and  _406
REMARK  170  A    between atoms: _405  and  _408
REMARK  171  A    between atoms: _408  and  _409
REMARK  172  A    between atoms: _409  and  _410
REMARK  173  A    between atoms: _412  and  _414
REMARK  174  A    between atoms: _414  and  _415
REMARK  175  A    between atoms: _414  and  _417
REMARK  176  A    between atoms: _417  and  _418
REMARK  177  A    between atoms: _421  and  _423
REMARK  178  A    between atoms: _423  and  _424
REMARK  179  A    between atoms: _426  and  _428
REMARK  180  A    between atoms: _428  and  _429
REMARK  181  A    between atoms: _431  and  _433
REMARK  182  A    between atoms: _433  and  _434
REMARK  183  A    between atoms: _433  and  _436
REMARK  184  A    between atoms: _436  and  _437
REMARK  185  A    between atoms: _440  and  _442
REMARK  186  A    between atoms: _442  and  _443
REMARK  187  A    between atoms: _445  and  _447
REMARK  188  A    between atoms: _447  and  _448
REMARK  189  A    between atoms: _450  and  _452
REMARK  190  A    between atoms: _452  and  _453
REMARK  191  A    between atoms: _452  and  _455
REMARK  192  A    between atoms: _455  and  _456
REMARK  193  A    between atoms: _462  and  _464
REMARK  194  A    between atoms: _464  and  _465
REMARK  195  A    between atoms: _464  and  _467
REMARK  196  A    between atoms: _467  and  _468
REMARK  197  A    between atoms: _471  and  _473
REMARK  198  A    between atoms: _473  and  _474
REMARK  199  A    between atoms: _473  and  _476
REMARK  200  A    between atoms: _479  and  _481
REMARK  201  A    between atoms: _481  and  _482
REMARK  202  A    between atoms: _481  and  _484
REMARK  203  A    between atoms: _484  and  _485
REMARK  204  A    between atoms: _488  and  _490
REMARK  205  A    between atoms: _490  and  _491
REMARK  206  A    between atoms: _490  and  _493
REMARK  207  A    between atoms: _493  and  _494
REMARK  208  A    between atoms: _498  and  _499
REMARK  209  A    between atoms: _504  and  _506
REMARK  210  A    between atoms: _506  and  _507
REMARK  211  A    between atoms: _506  and  _509
REMARK  212  A    between atoms: _512  and  _514
REMARK  213  A    between atoms: _514  and  _515
REMARK  214  A    between atoms: _514  and  _517
REMARK  215  A    between atoms: _517  and  _518
REMARK  216  A    between atoms: _523  and  _525
REMARK  217  A    between atoms: _525  and  _526
REMARK  218  A    between atoms: _525  and  _528
REMARK  219  A    between atoms: _528  and  _529
REMARK  220  A    between atoms: _532  and  _534
REMARK  221  A    between atoms: _534  and  _535
REMARK  222  A    between atoms: _534  and  _537
REMARK  223  A    between atoms: _537  and  _538
REMARK  224  A    between atoms: _541  and  _543
REMARK  225  A    between atoms: _543  and  _544
REMARK  226  A    between atoms: _546  and  _548
REMARK  227  A    between atoms: _548  and  _549
REMARK  228  A    between atoms: _548  and  _551
REMARK  229  A    between atoms: _551  and  _552
REMARK  230  A    between atoms: _552  and  _553
REMARK  231  A    between atoms: _553  and  _554
REMARK  232  A    between atoms: _563  and  _565
REMARK  233  A    between atoms: _565  and  _566
REMARK  234  A    between atoms: _565  and  _568
REMARK  235  A    between atoms: _568  and  _569
REMARK                            x       y       z     vdW  Elec       q    Type
REMARK                         _______ _______ _______ _____ _____    ______ ____
ROOT
ATOM      1  C   GLY A   5      28.168  17.130   3.429  0.00  0.00    +0.243 C 
ATOM      2  N   ALA A   6      28.706  16.802   4.586  0.00  0.00    -0.297 N 
ATOM      3  H   ALA A   6      29.094  15.842   4.685  0.00  0.00    +0.150 HD
ATOM      4  O   GLY A   5      27.719  18.266   3.188  0.00  0.00    -0.273 OA
ENDROOT
BRANCH   2   5
ATOM      5  CA  ALA A   6      28.796  17.694   5.741  0.00  0.00    +0.149 C 
ATOM      6  CB  ALA A   6      28.637  16.881   7.015  0.00  0.00    +0.031 C 
BRANCH   5   7
ATOM      7  C   ALA A   6      30.101  18.445   5.719  0.00  0.00    +0.241 C 
ATOM      8  N   ASP A   7      30.040  19.793   5.743  0.00  0.00    -0.297 N 
ATOM      9  H   ASP A   7      29.118  20.273   5.729  0.00  0.00    +0.150 HD
ATOM     10  O   ALA A   6      31.166  17.839   5.719  0.00  0.00    -0.273 OA
BRANCH   8  11
ATOM     11  CA  ASP A   7      31.272  20.576   5.788  0.00  0.00    +0.160 C 
BRANCH  11  12
ATOM     12  C   ASP A   7      31.962  20.415   7.144  0.00  0.00    +0.241 C 
ATOM     13  N   ASP A   8      31.172  20.262   8.189  0.00  0.00    -0.297 N 
ATOM     14  H   ASP A   8      30.167  20.090   7.983  0.00  0.00    +0.150 HD
ATOM     15  O   ASP A   7      33.185  20.454   7.254  0.00  0.00    -0.273 OA
BRANCH  13  16
ATOM     16  CA  ASP A   8      31.536  20.305   9.582  0.00  0.00    +0.160 C 
BRANCH  16  17
ATOM     17  C   ASP A   8      31.175  19.010  10.301  0.00  0.00    +0.241 C 
ATOM     18  N   THR A   9      31.800  18.785  11.411  0.00  0.00    -0.295 N 
ATOM     19  H   THR A   9      32.548  19.458  11.674  0.00  0.00    +0.150 HD
ATOM     20  O   ASP A   8      30.320  18.243   9.861  0.00  0.00    -0.273 OA
BRANCH  18  21
ATOM     21  CA  THR A   9      31.553  17.660  12.343  0.00  0.00    +0.176 C 
BRANCH  21  22
ATOM     22  C   THR A   9      30.655  18.146  13.443  0.00  0.00    +0.243 C 
ATOM     23  O   THR A   9      30.939  19.178  14.084  0.00  0.00    -0.273 OA
ATOM     24  N   VAL A  10      29.568  17.424  13.672  0.00  0.00    -0.298 N 
ATOM     25  H   VAL A  10      29.462  16.518  13.172  0.00  0.00    +0.150 HD
BRANCH  24  26
ATOM     26  CA  VAL A  10      28.513  17.835  14.589  0.00  0.00    +0.137 C 
BRANCH  26  27
ATOM     27  CB  VAL A  10      27.252  18.357  13.845  0.00  0.00    +0.026 C 
ATOM     28  CG2 VAL A  10      26.378  19.048  14.893  0.00  0.00    +0.002 C 
ATOM     29  CG1 VAL A  10      27.579  19.194  12.643  0.00  0.00    +0.002 C 
ENDBRANCH  26  27
BRANCH  26  30
ATOM     30  C   VAL A  10      28.136  16.656  15.482  0.00  0.00    +0.227 C 
ATOM     31  O   VAL A  10      27.770  15.610  14.985  0.00  0.00    -0.286 OA
ENDBRANCH  26  30
ENDBRANCH  24  26
ENDBRANCH  21  22
BRANCH  21  32
ATOM     32  CB  THR A   9      32.920  17.183  12.886  0.00  0.00    +0.137 C 
ATOM     33  CG2 THR A   9      32.766  16.159  13.981  0.00  0.00    +0.034 C 
BRANCH  32  34
ATOM     34  OG1 THR A   9      33.635  16.620  11.778  0.00  0.00    -0.382 OA
ATOM     35  HG1 THR A   9      33.756  17.311  11.080  0.00  0.00    +0.210 HD
ENDBRANCH  32  34
ENDBRANCH  21  32
ENDBRANCH  18  21
ENDBRANCH  16  17
BRANCH  16  36
ATOM     36  CB  ASP A   8      30.802  21.450  10.284  0.00  0.00    +0.143 C 
BRANCH  36  37
ATOM     37  CG  ASP A   8      30.968  22.800   9.641  0.00  0.00    +0.367 C 
ATOM     38  OD2 ASP A   8      29.966  23.529   9.577  0.00  0.00    -0.246 OA
ATOM     39  OD1 ASP A   8      32.088  23.115   9.211  0.00  0.00    -0.246 OA
ENDBRANCH  36  37
ENDBRANCH  16  36
ENDBRANCH  13  16
ENDBRANCH  11  12
BRANCH  11  40
ATOM     40  CB  ASP A   7      30.982  22.045   5.570  0.00  0.00    +0.143 C 
BRANCH  40  41
ATOM     41  CG  ASP A   7      30.477  22.409   4.188  0.00  0.00    +0.367 C 
ATOM     42  OD2 ASP A   7      29.895  23.499   4.113  0.00  0.00    -0.246 OA
ATOM     43  OD1 ASP A   7      30.663  21.640   3.223  0.00  0.00    -0.246 OA
ENDBRANCH  40  41
ENDBRANCH  11  40
ENDBRANCH   8  11
ENDBRANCH   5   7
ENDBRANCH   2   5
BRANCH   1  44
ATOM     44  CA  GLY A   5      28.083  16.104   2.353  0.00  0.00    +0.176 C 
BRANCH  44  46
ATOM     45  C   THR A   4      30.149  14.875   2.389  0.00  0.00    +0.243 C 
ATOM     46  N   GLY A   5      28.839  14.918   2.613  0.00  0.00    -0.295 N 
ATOM     47  H   GLY A   5      28.356  14.075   2.984  0.00  0.00    +0.150 HD
ATOM     48  O   THR A   4      30.802  15.791   1.886  0.00  0.00    -0.273 OA
BRANCH  45  49
ATOM     49  CA  THR A   4      30.894  13.580   2.743  0.00  0.00    +0.176 C 
BRANCH  49  52
ATOM     50  C   ASP A   3      30.016  13.178   4.953  0.00  0.00    +0.241 C 
ATOM     51  O   ASP A   3      30.357  14.289   5.323  0.00  0.00    -0.273 OA
ATOM     52  N   THR A   4      30.181  12.752   3.691  0.00  0.00    -0.295 N 
ATOM     53  H   THR A   4      29.798  11.831   3.396  0.00  0.00    +0.150 HD
BRANCH  50  54
ATOM     54  CA  ASP A   3      29.304  12.223   5.875  0.00  0.00    +0.160 C 
BRANCH  54  56
ATOM     55  C   LEU A   2      30.209  10.076   6.668  0.00  0.00    +0.241 C 
ATOM     56  N   ASP A   3      30.233  11.409   6.674  0.00  0.00    -0.297 N 
ATOM     57  H   ASP A   3      30.937  11.893   7.267  0.00  0.00    +0.150 HD
ATOM     58  O   LEU A   2      29.567   9.421   5.846  0.00  0.00    -0.273 OA
BRANCH  55  59
ATOM     59  CA  LEU A   2      30.904   9.371   7.826  0.00  0.00    +0.149 C 
BRANCH  59  62
ATOM     60  C   LEU A   1      29.234   9.546   9.592  0.00  0.00    +0.238 C 
ATOM     61  O   LEU A   1      29.468  10.741   9.795  0.00  0.00    -0.274 OA
ATOM     62  N   LEU A   2      29.890   8.796   8.712  0.00  0.00    -0.297 N 
ATOM     63  H   LEU A   2      29.679   7.780   8.652  0.00  0.00    +0.150 HD
BRANCH  60  64
ATOM     64  CA  LEU A   1      28.111   8.891  10.387  0.00  0.00    +0.145 C 
BRANCH  64  65
ATOM     65  N   LEU A   1      28.296   9.080  11.804  0.00  0.00    -0.238 NA
ATOM     66  H   LEU A   1      27.956   9.969  12.223  0.00  0.00    +0.142 HD
ENDBRANCH  64  65
BRANCH  64  67
ATOM     67  CB  LEU A   1      26.768   9.531  10.043  0.00  0.00    +0.026 C 
BRANCH  67  68
ATOM     68  CG  LEU A   1      26.247   9.471   8.632  0.00  0.00    +0.002 C 
ATOM     69  CD2 LEU A   1      24.969  10.278   8.502  0.00  0.00    +0.000 C 
ATOM     70  CD1 LEU A   1      25.951   8.029   8.257  0.00  0.00    +0.000 C 
ENDBRANCH  67  68
ENDBRANCH  64  67
ENDBRANCH  60  64
ENDBRANCH  59  62
BRANCH  59  71
ATOM     71  CB  LEU A   2      31.858   8.304   7.310  0.00  0.00    +0.029 C 
BRANCH  71  72
ATOM     72  CG  LEU A   2      32.592   7.458   8.376  0.00  0.00    +0.002 C 
ATOM     73  CD2 LEU A   2      33.405   8.335   9.321  0.00  0.00    +0.000 C 
ATOM     74  CD1 LEU A   2      33.428   6.398   7.671  0.00  0.00    +0.000 C 
ENDBRANCH  71  72
ENDBRANCH  59  71
ENDBRANCH  55  59
ENDBRANCH  54  56
BRANCH  54  75
ATOM     75  CB  ASP A   3      28.375  13.009   6.817  0.00  0.00    +0.143 C 
BRANCH  75  76
ATOM     76  CG  ASP A   3      27.227  13.657   6.086  0.00  0.00    +0.367 C 
ATOM     77  OD2 ASP A   3      26.295  14.094   6.782  0.00  0.00    -0.246 OA
ATOM     78  OD1 ASP A   3      27.267  13.601   4.842  0.00  0.00    -0.246 OA
ENDBRANCH  75  76
ENDBRANCH  54  75
ENDBRANCH  50  54
ENDBRANCH  49  52
BRANCH  49  79
ATOM     79  CB  THR A   4      31.206  12.795   1.454  0.00  0.00    +0.137 C 
ATOM     80  CG2 THR A   4      32.076  11.580   1.757  0.00  0.00    +0.034 C 
BRANCH  79  81
ATOM     81  OG1 THR A   4      29.999  12.344   0.813  0.00  0.00    -0.382 OA
ATOM     82  HG1 THR A   4      29.439  13.126   0.579  0.00  0.00    +0.210 HD
ENDBRANCH  79  81
ENDBRANCH  49  79
ENDBRANCH  45  49
ENDBRANCH  44  46
ENDBRANCH   1  44
TORSDOF 35
REMARK  Name = ../refined-set-2016/1sdt/1sdt_pocket.pdb
REMARK  235 active torsions:
REMARK  status: ('A' for Active; 'I' for Inactive)
REMARK    1  A    between atoms: _1  and  _3
REMARK    2  A    between atoms: _3  and  _4
REMARK    3  A    between atoms: _3  and  _6
REMARK    4  A    between atoms: _6  and  _7
REMARK    5  A    between atoms: _7  and  _8
REMARK    6  A    between atoms: _8  and  _9
REMARK    7  A    between atoms: _18  and  _20
REMARK    8  A    between atoms: _20  and  _21
REMARK    9  A    between atoms: _20  and  _23
REMARK   10  A    between atoms: _23  and  _24
REMARK   11  A    between atoms: _27  and  _29
REMARK   12  A    between atoms: _29  and  _30
REMARK   13  A    between atoms: _29  and  _32
REMARK   14  A    between atoms: _32  and  _33
REMARK   15  A    between atoms: _36  and  _38
REMARK   16  A    between atoms: _38  and  _39
REMARK   17  A    between atoms: _38  and  _41
REMARK   18  A    between atoms: _41  and  _42
REMARK   19  A    between atoms: _45  and  _47
REMARK   20  A    between atoms: _47  and  _48
REMARK   21  A    between atoms: _47  and  _50
REMARK   22  A    between atoms: _50  and  _51
REMARK   23  A    between atoms: _54  and  _56
REMARK   24  A    between atoms: _56  and  _57
REMARK   25  A    between atoms: _56  and  _59
REMARK   26  A    between atoms: _59  and  _60
REMARK   27  A    between atoms: _63  and  _65
REMARK   28  A    between atoms: _65  and  _66
REMARK   29  A    between atoms: _68  and  _70
REMARK   30  A    between atoms: _70  and  _71
REMARK   31  A    between atoms: _74  and  _76
REMARK   32  A    between atoms: _76  and  _77
REMARK   33  A    between atoms: _76  and  _79
REMARK   34  A    between atoms: _79  and  _80
REMARK   35  A    between atoms: _83  and  _85
REMARK   36  A    between atoms: _85  and  _86
REMARK   37  A    between atoms: _85  and  _88
REMARK   38  A    between atoms: _88  and  _89
REMARK   39  A    between atoms: _92  and  _94
REMARK   40  A    between atoms: _94  and  _95
REMARK   41  A    between atoms: _94  and  _97
REMARK   42  A    between atoms: _97  and  _98
REMARK   43  A    between atoms: _101  and  _103
REMARK   44  A    between atoms: _103  and  _104
REMARK   45  A    between atoms: _103  and  _106
REMARK   46  A    between atoms: _109  and  _111
REMARK   47  A    between atoms: _111  and  _112
REMARK   48  A    between atoms: _111  and  _114
REMARK   49  A    between atoms: _114  and  _115
REMARK   50  A    between atoms: _115  and  _116
REMARK   51  A    between atoms: _116  and  _117
REMARK   52  A    between atoms: _117  and  _118
REMARK   53  A    between atoms: _122  and  _124
REMARK   54  A    between atoms: _124  and  _125
REMARK   55  A    between atoms: _124  and  _127
REMARK   56  A    between atoms: _127  and  _128
REMARK   57  A    between atoms: _128  and  _129
REMARK   58  A    between atoms: _131  and  _133
REMARK   59  A    between atoms: _133  and  _134
REMARK   60  A    between atoms: _133  and  _136
REMARK   61  A    between atoms: _136  and  _137
REMARK   62  A    between atoms: _140  and  _142
REMARK   63  A    between atoms: _142  and  _143
REMARK   64  A    between atoms: _145  and  _147
REMARK   65  A    between atoms: _147  and  _148
REMARK   66  A    between atoms: _150  and  _152
REMARK   67  A    between atoms: _152  and  _153
REMARK   68  A    between atoms: _152  and  _155
REMARK   69  A    between atoms: _155  and  _156
REMARK   70  A    between atoms: _159  and  _161
REMARK   71  A    between atoms: _161  and  _162
REMARK   72  A    between atoms: _164  and  _166
REMARK   73  A    between atoms: _166  and  _167
REMARK   74  A    between atoms: _169  and  _171
REMARK   75  A    between atoms: _171  and  _172
REMARK   76  A    between atoms: _171  and  _174
REMARK   77  A    between atoms: _174  and  _175
REMARK   78  A    between atoms: _181  and  _183
REMARK   79  A    between atoms: _183  and  _184
REMARK   80  A    between atoms: _183  and  _186
REMARK   81  A    between atoms: _186  and  _187
REMARK   82  A    between atoms: _190  and  _192
REMARK   83  A    between atoms: _192  and  _193
REMARK   84  A    between atoms: _192  and  _195
REMARK   85  A    between atoms: _198  and  _200
REMARK   86  A    between atoms: _200  and  _201
REMARK   87  A    between atoms: _200  and  _203
REMARK   88  A    between atoms: _203  and  _204
REMARK   89  A    between atoms: _207  and  _209
REMARK   90  A    between atoms: _209  and  _210
REMARK   91  A    between atoms: _209  and  _212
REMARK   92  A    between atoms: _212  and  _213
REMARK   93  A    between atoms: _217  and  _218
REMARK   94  A    between atoms: _223  and  _225
REMARK   95  A    between atoms: _225  and  _226
REMARK   96  A    between atoms: _225  and  _228
REMARK   97  A    between atoms: _231  and  _233
REMARK   98  A    between atoms: _233  and  _234
REMARK   99  A    between atoms: _233  and  _236
REMARK  100  A    between atoms: _236  and  _237
REMARK  101  A    between atoms: _242  and  _244
REMARK  102  A    between atoms: _244  and  _245
REMARK  103  A    between atoms: _244  and  _247
REMARK  104  A    between atoms: _247  and  _248
REMARK  105  A    between atoms: _251  and  _253
REMARK  106  A    between atoms: _253  and  _254
REMARK  107  A    between atoms: _253  and  _256
REMARK  108  A    between atoms: _256  and  _257
REMARK  109  A    between atoms: _260  and  _262
REMARK  110  A    between atoms: _262  and  _263
REMARK  111  A    between atoms: _265  and  _267
REMARK  112  A    between atoms: _267  and  _268
REMARK  113  A    between atoms: _267  and  _270
REMARK  114  A    between atoms: _270  and  _271
REMARK  115  A    between atoms: _271  and  _272
REMARK  116  A    between atoms: _272  and  _273
REMARK  117  A    between atoms: _282  and  _284
REMARK  118  A    between atoms: _284  and  _285
REMARK  119  A    between atoms: _284  and  _287
REMARK  120  A    between atoms: _288  and  _289
REMARK  121  A    between atoms: _289  and  _290
REMARK  122  A    between atoms: _299  and  _301
REMARK  123  A    between atoms: _301  and  _302
REMARK  124  A    between atoms: _301  and  _304
REMARK  125  A    between atoms: _304  and  _305
REMARK  126  A    between atoms: _308  and  _310
REMARK  127  A    between atoms: _310  and  _311
REMARK  128  A    between atoms: _310  and  _313
REMARK  129  A    between atoms: _313  and  _314
REMARK  130  A    between atoms: _317  and  _319
REMARK  131  A    between atoms: _319  and  _320
REMARK  132  A    between atoms: _319  and  _322
REMARK  133  A    between atoms: _322  and  _323
REMARK  134  A    between atoms: _326  and  _328
REMARK  135  A    between atoms: _328  and  _329
REMARK  136  A    between atoms: _328  and  _331
REMARK  137  A    between atoms: _331  and  _332
REMARK  138  A    between atoms: _335  and  _337
REMARK  139  A    between atoms: _337  and  _338
REMARK  140  A    between atoms: _340  and  _342
REMARK  141  A    between atoms: _342  and  _343
REMARK  142  A    between atoms: _346  and  _348
REMARK  143  A    between atoms: _348  and  _349
REMARK  144  A    between atoms: _348  and  _351
REMARK  145  A    between atoms: _351  and  _352
REMARK  146  A    between atoms: _355  and  _357
REMARK  147  A    between atoms: _357  and  _358
REMARK  148  A    between atoms: _357  and  _360
REMARK  149  A    between atoms: _360  and  _361
REMARK  150  A    between atoms: _364  and  _366
REMARK  151  A    between atoms: _366  and  _367
REMARK  152  A    between atoms: _366  and  _369
REMARK  153  A    between atoms: _369  and  _370
REMARK  154  A    between atoms: _373  and  _375
REMARK  155  A    between atoms: _375  and  _376
REMARK  156  A    between atoms: _375  and  _378
REMARK  157  A    between atoms: _381  and  _383
REMARK  158  A    between atoms: _383  and  _384
REMARK  159  A    between atoms: _383  and  _386
REMARK  160  A    between atoms: _386  and  _387
REMARK  161  A    between atoms: _390  and  _392
REMARK  162  A    between atoms: _392  and  _393
REMARK  163  A    between atoms: _392  and  _395
REMARK  164  A    between atoms: _395  and  _396
REMARK  165  A    between atoms: _396  and  _397
REMARK  166  A    between atoms: _397  and  _398
REMARK  167  A    between atoms: _398  and  _399
REMARK  168  A    between atoms: _403  and  _405
REMARK  169  A    between atoms: _405  and  _406
REMARK  170  A    between atoms: _405  and  _408
REMARK  171  A    between atoms: _408  and  _409
REMARK  172  A    between atoms: _409  and  _410
REMARK  173  A    between atoms: _412  and  _414
REMARK  174  A    between atoms: _414  and  _415
REMARK  175  A    between atoms: _414  and  _417
REMARK  176  A    between atoms: _417  and  _418
REMARK  177  A    between atoms: _421  and  _423
REMARK  178  A    between atoms: _423  and  _424
REMARK  179  A    between atoms: _426  and  _428
REMARK  180  A    between atoms: _428  and  _429
REMARK  181  A    between atoms: _431  and  _433
REMARK  182  A    between atoms: _433  and  _434
REMARK  183  A    between atoms: _433  and  _436
REMARK  184  A    between atoms: _436  and  _437
REMARK  185  A    between atoms: _440  and  _442
REMARK  186  A    between atoms: _442  and  _443
REMARK  187  A    between atoms: _445  and  _447
REMARK  188  A    between atoms: _447  and  _448
REMARK  189  A    between atoms: _450  and  _452
REMARK  190  A    between atoms: _452  and  _453
REMARK  191  A    between atoms: _452  and  _455
REMARK  192  A    between atoms: _455  and  _456
REMARK  193  A    between atoms: _462  and  _464
REMARK  194  A    between atoms: _464  and  _465
REMARK  195  A    between atoms: _464  and  _467
REMARK  196  A    between atoms: _467  and  _468
REMARK  197  A    between atoms: _471  and  _473
REMARK  198  A    between atoms: _473  and  _474
REMARK  199  A    between atoms: _473  and  _476
REMARK  200  A    between atoms: _479  and  _481
REMARK  201  A    between atoms: _481  and  _482
REMARK  202  A    between atoms: _481  and  _484
REMARK  203  A    between atoms: _484  and  _485
REMARK  204  A    between atoms: _488  and  _490
REMARK  205  A    between atoms: _490  and  _491
REMARK  206  A    between atoms: _490  and  _493
REMARK  207  A    between atoms: _493  and  _494
REMARK  208  A    between atoms: _498  and  _499
REMARK  209  A    between atoms: _504  and  _506
REMARK  210  A    between atoms: _506  and  _507
REMARK  211  A    between atoms: _506  and  _509
REMARK  212  A    between atoms: _512  and  _514
REMARK  213  A    between atoms: _514  and  _515
REMARK  214  A    between atoms: _514  and  _517
REMARK  215  A    between atoms: _517  and  _518
REMARK  216  A    between atoms: _523  and  _525
REMARK  217  A    between atoms: _525  and  _526
REMARK  218  A    between atoms: _525  and  _528
REMARK  219  A    between atoms: _528  and  _529
REMARK  220  A    between atoms: _532  and  _534
REMARK  221  A    between atoms: _534  and  _535
REMARK  222  A    between atoms: _534  and  _537
REMARK  223  A    between atoms: _537  and  _538
REMARK  224  A    between atoms: _541  and  _543
REMARK  225  A    between atoms: _543  and  _544
REMARK  226  A    between atoms: _546  and  _548
REMARK  227  A    between atoms: _548  and  _549
REMARK  228  A    between atoms: _548  and  _551
REMARK  229  A    between atoms: _551  and  _552
REMARK  230  A    between atoms: _552  and  _553
REMARK  231  A    between atoms: _553  and  _554
REMARK  232  A    between atoms: _563  and  _565
REMARK  233  A    between atoms: _565  and  _566
REMARK  234  A    between atoms: _565  and  _568
REMARK  235  A    between atoms: _568  and  _569
REMARK                            x       y       z     vdW  Elec       q    Type
REMARK                         _______ _______ _______ _____ _____    ______ ____
ROOT
ATOM      1  C   GLY A   5      19.658  21.319   6.129  0.00  0.00    +0.243 C 
ATOM      2  O   GLY A   5      19.186  22.401   5.724  0.00  0.00    -0.273 OA
ATOM      3  N   ILE A   6      19.236  20.186   5.636  0.00  0.00    -0.297 N 
ATOM      4  H   ILE A   6      19.690  19.292   5.912  0.00  0.00    +0.150 HD
ENDROOT
BRANCH   3   5
ATOM      5  CA  ILE A   6      18.127  20.186   4.698  0.00  0.00    +0.149 C 
BRANCH   5   6
ATOM      6  C   ILE A   6      16.887  20.739   5.314  0.00  0.00    +0.241 C 
ATOM      7  N   GLY A   7      16.699  20.650   6.618  0.00  0.00    -0.295 N 
ATOM      8  H   GLY A   7      17.432  20.249   7.237  0.00  0.00    +0.150 HD
ATOM      9  O   ILE A   6      16.045  21.246   4.563  0.00  0.00    -0.273 OA
BRANCH   7  10
ATOM     10  CA  GLY A   7      15.411  21.138   7.176  0.00  0.00    +0.176 C 
BRANCH  10  11
ATOM     11  C   GLY A   7      15.434  22.500   7.822  0.00  0.00    +0.243 C 
ATOM     12  O   GLY A   7      14.406  22.980   8.362  0.00  0.00    -0.273 OA
ATOM     13  N   GLY A   8      16.568  23.174   7.795  0.00  0.00    -0.295 N 
ATOM     14  H   GLY A   8      17.393  22.708   7.365  0.00  0.00    +0.150 HD
BRANCH  13  15
ATOM     15  CA  GLY A   8      16.755  24.522   8.321  0.00  0.00    +0.176 C 
BRANCH  15  16
ATOM     16  C   GLY A   8      18.003  24.599   9.170  0.00  0.00    +0.243 C 
ATOM     17  N   PHE A   9      18.185  25.596   9.982  0.00  0.00    -0.297 N 
ATOM     18  H   PHE A   9      17.412  26.288  10.055  0.00  0.00    +0.150 HD
ATOM     19  O   GLY A   8      18.876  23.713   9.099  0.00  0.00    -0.273 OA
BRANCH  17  20
ATOM     20  CA  PHE A   9      19.359  25.841  10.797  0.00  0.00    +0.153 C 
BRANCH  20  21
ATOM     21  C   PHE A   9      19.166  25.481  12.262  0.00  0.00    +0.241 C 
ATOM     22  N   ILE A  10      20.276  25.024  12.855  0.00  0.00    -0.298 N 
ATOM     23  H   ILE A  10      21.120  24.831  12.279  0.00  0.00    +0.150 HD
ATOM     24  O   PHE A   9      18.062  25.632  12.788  0.00  0.00    -0.273 OA
BRANCH  22  25
ATOM     25  CA  ILE A  10      20.324  24.793  14.288  0.00  0.00    +0.137 C 
BRANCH  25  26
ATOM     26  C   ILE A  10      21.514  25.562  14.883  0.00  0.00    +0.227 C 
ATOM     27  O   ILE A  10      22.504  25.837  14.240  0.00  0.00    -0.286 OA
ENDBRANCH  25  26
BRANCH  25  28
ATOM     28  CB  ILE A  10      20.464  23.295  14.674  0.00  0.00    +0.026 C 
ATOM     29  CG2 ILE A  10      19.255  22.499  14.229  0.00  0.00    +0.002 C 
BRANCH  28  30
ATOM     30  CG1 ILE A  10      21.764  22.652  14.191  0.00  0.00    +0.002 C 
ATOM     31  CD1 ILE A  10      21.997  21.262  14.729  0.00  0.00    +0.000 C 
ENDBRANCH  28  30
ENDBRANCH  25  28
ENDBRANCH  22  25
ENDBRANCH  20  21
BRANCH  20  32
ATOM     32  CB  PHE A   9      19.717  27.321  10.702  0.00  0.00    +0.055 C 
BRANCH  32  33
ATOM     33  CG  PHE A   9      20.337  27.726   9.375  0.00  0.00    -0.020 A 
ATOM     34  CD2 PHE A   9      21.709  27.913   9.297  0.00  0.00    -0.004 A 
ATOM     35  CE2 PHE A   9      22.281  28.262   8.089  0.00  0.00    -0.000 A 
ATOM     36  CZ  PHE A   9      21.468  28.455   6.986  0.00  0.00    -0.000 A 
ATOM     37  CE1 PHE A   9      20.092  28.286   7.075  0.00  0.00    -0.000 A 
ATOM     38  CD1 PHE A   9      19.512  27.919   8.274  0.00  0.00    -0.004 A 
ENDBRANCH  32  33
ENDBRANCH  20  32
ENDBRANCH  17  20
ENDBRANCH  15  16
ENDBRANCH  13  15
ENDBRANCH  10  11
ENDBRANCH   7  10
ENDBRANCH   5   6
BRANCH   5  39
ATOM     39  CB  ILE A   6      17.866  18.775   4.119  0.00  0.00    +0.027 C 
ATOM     40  CG2 ILE A   6      19.051  18.373   3.243  0.00  0.00    +0.002 C 
BRANCH  39  41
ATOM     41  CG1 ILE A   6      17.527  17.700   5.152  0.00  0.00    +0.002 C 
ATOM     42  CD1 ILE A   6      16.932  16.467   4.469  0.00  0.00    +0.000 C 
ENDBRANCH  39  41
ENDBRANCH   5  39
ENDBRANCH   3   5
BRANCH   1  43
ATOM     43  CA  GLY A   5      20.729  21.272   7.224  0.00  0.00    +0.176 C 
BRANCH  43  45
ATOM     44  C   GLY A   4      22.128  23.303   7.438  0.00  0.00    +0.243 C 
ATOM     45  N   GLY A   5      21.033  22.620   7.678  0.00  0.00    -0.295 N 
ATOM     46  H   GLY A   5      20.307  23.092   8.253  0.00  0.00    +0.150 HD
ATOM     47  O   GLY A   4      23.102  22.876   6.835  0.00  0.00    -0.273 OA
BRANCH  44  48
ATOM     48  CA  GLY A   4      22.144  24.710   8.031  0.00  0.00    +0.176 C 
BRANCH  48  51
ATOM     49  C   ILE A   3      23.280  25.124  10.149  0.00  0.00    +0.241 C 
ATOM     50  O   ILE A   3      22.282  24.895  10.837  0.00  0.00    -0.273 OA
ATOM     51  N   GLY A   4      23.320  24.989   8.813  0.00  0.00    -0.295 N 
ATOM     52  H   GLY A   4      24.233  25.090   8.326  0.00  0.00    +0.150 HD
BRANCH  49  53
ATOM     53  CA  ILE A   3      24.586  25.600  10.765  0.00  0.00    +0.149 C 
BRANCH  53  55
ATOM     54  C   MET A   2      24.778  27.663  11.996  0.00  0.00    +0.241 C 
ATOM     55  N   ILE A   3      24.280  26.456  11.898  0.00  0.00    -0.297 N 
ATOM     56  H   ILE A   3      23.652  26.102  12.648  0.00  0.00    +0.150 HD
ATOM     57  O   MET A   2      25.537  28.134  11.156  0.00  0.00    -0.273 OA
BRANCH  54  58
ATOM     58  CA  MET A   2      24.336  28.488  13.224  0.00  0.00    +0.149 C 
BRANCH  58  61
ATOM     59  C   LYS A   1      26.011  28.587  14.985  0.00  0.00    +0.238 C 
ATOM     60  O   LYS A   1      25.393  27.809  15.733  0.00  0.00    -0.274 OA
ATOM     61  N   MET A   2      25.516  29.028  13.839  0.00  0.00    -0.297 N 
ATOM     62  H   MET A   2      26.008  29.808  13.358  0.00  0.00    +0.150 HD
BRANCH  59  63
ATOM     63  CA  LYS A   1      27.396  29.038  15.397  0.00  0.00    +0.145 C 
BRANCH  63  64
ATOM     64  N   LYS A   1      27.467  29.138  16.842  0.00  0.00    -0.238 NA
ATOM     65  H   LYS A   1      26.903  28.468  17.403  0.00  0.00    +0.142 HD
ENDBRANCH  63  64
BRANCH  63  66
ATOM     66  CB  LYS A   1      28.425  28.000  14.951  0.00  0.00    +0.026 C 
BRANCH  66  67
ATOM     67  CG  LYS A   1      28.797  27.978  13.492  0.00  0.00    -0.000 C 
BRANCH  67  68
ATOM     68  CD  LYS A   1      29.846  26.891  13.265  0.00  0.00    -0.024 C 
BRANCH  68  69
ATOM     69  CE  LYS A   1      30.055  26.653  11.781  0.00  0.00    -0.086 C 
BRANCH  69  70
ATOM     70  NZ  LYS A   1      30.531  27.876  11.073  0.00  0.00    +0.380 N 
ATOM     71  HZ1 LYS A   1      31.437  28.181  11.482  0.00  0.00    -0.089 HD
ATOM     72  HZ2 LYS A   1      29.828  28.634  11.182  0.00  0.00    -0.089 HD
ATOM     73  HZ3 LYS A   1      30.659  27.663  10.063  0.00  0.00    -0.089 HD
ENDBRANCH  69  70
ENDBRANCH  68  69
ENDBRANCH  67  68
ENDBRANCH  66  67
ENDBRANCH  63  66
ENDBRANCH  59  63
ENDBRANCH  58  61
BRANCH  58  74
ATOM     74  CB  MET A   2      23.396  29.582  12.790  0.00  0.00    +0.041 C 
BRANCH  74  75
ATOM     75  CG  MET A   2      22.769  30.438  13.888  0.00  0.00    +0.060 C 
BRANCH  75  76
ATOM     76  SD  MET A   2      21.713  29.498  14.975  0.00  0.00    -0.139 S 
ATOM     77  CE  MET A   2      20.221  29.420  14.003  0.00  0.00    +0.069 C 
ENDBRANCH  75  76
ENDBRANCH  74  75
ENDBRANCH  58  74
ENDBRANCH  54  58
ENDBRANCH  53  55
BRANCH  53  78
ATOM     78  CB  ILE A   3      25.467  24.426  11.194  0.00  0.00    +0.027 C 
ATOM     79  CG2 ILE A   3      26.781  24.982  11.695  0.00  0.00    +0.002 C 
BRANCH  78  80
ATOM     80  CG1 ILE A   3      24.835  23.494  12.203  0.00  0.00    +0.002 C 
ATOM     81  CD1 ILE A   3      25.698  22.282  12.524  0.00  0.00    +0.000 C 
ENDBRANCH  78  80
ENDBRANCH  53  78
ENDBRANCH  49  53
ENDBRANCH  48  51
ENDBRANCH  44  48
ENDBRANCH  43  45
ENDBRANCH   1  43
TORSDOF 36
REMARK  Name = ../refined-set-2016/1sdt/1sdt_pocket.pdb
REMARK  235 active torsions:
REMARK  status: ('A' for Active; 'I' for Inactive)
REMARK    1  A    between atoms: _1  and  _3
REMARK    2  A    between atoms: _3  and  _4
REMARK    3  A    between atoms: _3  and  _6
REMARK    4  A    between atoms: _6  and  _7
REMARK    5  A    between atoms: _7  and  _8
REMARK    6  A    between atoms: _8  and  _9
REMARK    7  A    between atoms: _18  and  _20
REMARK    8  A    between atoms: _20  and  _21
REMARK    9  A    between atoms: _20  and  _23
REMARK   10  A    between atoms: _23  and  _24
REMARK   11  A    between atoms: _27  and  _29
REMARK   12  A    between atoms: _29  and  _30
REMARK   13  A    between atoms: _29  and  _32
REMARK   14  A    between atoms: _32  and  _33
REMARK   15  A    between atoms: _36  and  _38
REMARK   16  A    between atoms: _38  and  _39
REMARK   17  A    between atoms: _38  and  _41
REMARK   18  A    between atoms: _41  and  _42
REMARK   19  A    between atoms: _45  and  _47
REMARK   20  A    between atoms: _47  and  _48
REMARK   21  A    between atoms: _47  and  _50
REMARK   22  A    between atoms: _50  and  _51
REMARK   23  A    between atoms: _54  and  _56
REMARK   24  A    between atoms: _56  and  _57
REMARK   25  A    between atoms: _56  and  _59
REMARK   26  A    between atoms: _59  and  _60
REMARK   27  A    between atoms: _63  and  _65
REMARK   28  A    between atoms: _65  and  _66
REMARK   29  A    between atoms: _68  and  _70
REMARK   30  A    between atoms: _70  and  _71
REMARK   31  A    between atoms: _74  and  _76
REMARK   32  A    between atoms: _76  and  _77
REMARK   33  A    between atoms: _76  and  _79
REMARK   34  A    between atoms: _79  and  _80
REMARK   35  A    between atoms: _83  and  _85
REMARK   36  A    between atoms: _85  and  _86
REMARK   37  A    between atoms: _85  and  _88
REMARK   38  A    between atoms: _88  and  _89
REMARK   39  A    between atoms: _92  and  _94
REMARK   40  A    between atoms: _94  and  _95
REMARK   41  A    between atoms: _94  and  _97
REMARK   42  A    between atoms: _97  and  _98
REMARK   43  A    between atoms: _101  and  _103
REMARK   44  A    between atoms: _103  and  _104
REMARK   45  A    between atoms: _103  and  _106
REMARK   46  A    between atoms: _109  and  _111
REMARK   47  A    between atoms: _111  and  _112
REMARK   48  A    between atoms: _111  and  _114
REMARK   49  A    between atoms: _114  and  _115
REMARK   50  A    between atoms: _115  and  _116
REMARK   51  A    between atoms: _116  and  _117
REMARK   52  A    between atoms: _117  and  _118
REMARK   53  A    between atoms: _122  and  _124
REMARK   54  A    between atoms: _124  and  _125
REMARK   55  A    between atoms: _124  and  _127
REMARK   56  A    between atoms: _127  and  _128
REMARK   57  A    between atoms: _128  and  _129
REMARK   58  A    between atoms: _131  and  _133
REMARK   59  A    between atoms: _133  and  _134
REMARK   60  A    between atoms: _133  and  _136
REMARK   61  A    between atoms: _136  and  _137
REMARK   62  A    between atoms: _140  and  _142
REMARK   63  A    between atoms: _142  and  _143
REMARK   64  A    between atoms: _145  and  _147
REMARK   65  A    between atoms: _147  and  _148
REMARK   66  A    between atoms: _150  and  _152
REMARK   67  A    between atoms: _152  and  _153
REMARK   68  A    between atoms: _152  and  _155
REMARK   69  A    between atoms: _155  and  _156
REMARK   70  A    between atoms: _159  and  _161
REMARK   71  A    between atoms: _161  and  _162
REMARK   72  A    between atoms: _164  and  _166
REMARK   73  A    between atoms: _166  and  _167
REMARK   74  A    between atoms: _169  and  _171
REMARK   75  A    between atoms: _171  and  _172
REMARK   76  A    between atoms: _171  and  _174
REMARK   77  A    between atoms: _174  and  _175
REMARK   78  A    between atoms: _181  and  _183
REMARK   79  A    between atoms: _183  and  _184
REMARK   80  A    between atoms: _183  and  _186
REMARK   81  A    between atoms: _186  and  _187
REMARK   82  A    between atoms: _190  and  _192
REMARK   83  A    between atoms: _192  and  _193
REMARK   84  A    between atoms: _192  and  _195
REMARK   85  A    between atoms: _198  and  _200
REMARK   86  A    between atoms: _200  and  _201
REMARK   87  A    between atoms: _200  and  _203
REMARK   88  A    between atoms: _203  and  _204
REMARK   89  A    between atoms: _207  and  _209
REMARK   90  A    between atoms: _209  and  _210
REMARK   91  A    between atoms: _209  and  _212
REMARK   92  A    between atoms: _212  and  _213
REMARK   93  A    between atoms: _217  and  _218
REMARK   94  A    between atoms: _223  and  _225
REMARK   95  A    between atoms: _225  and  _226
REMARK   96  A    between atoms: _225  and  _228
REMARK   97  A    between atoms: _231  and  _233
REMARK   98  A    between atoms: _233  and  _234
REMARK   99  A    between atoms: _233  and  _236
REMARK  100  A    between atoms: _236  and  _237
REMARK  101  A    between atoms: _242  and  _244
REMARK  102  A    between atoms: _244  and  _245
REMARK  103  A    between atoms: _244  and  _247
REMARK  104  A    between atoms: _247  and  _248
REMARK  105  A    between atoms: _251  and  _253
REMARK  106  A    between atoms: _253  and  _254
REMARK  107  A    between atoms: _253  and  _256
REMARK  108  A    between atoms: _256  and  _257
REMARK  109  A    between atoms: _260  and  _262
REMARK  110  A    between atoms: _262  and  _263
REMARK  111  A    between atoms: _265  and  _267
REMARK  112  A    between atoms: _267  and  _268
REMARK  113  A    between atoms: _267  and  _270
REMARK  114  A    between atoms: _270  and  _271
REMARK  115  A    between atoms: _271  and  _272
REMARK  116  A    between atoms: _272  and  _273
REMARK  117  A    between atoms: _282  and  _284
REMARK  118  A    between atoms: _284  and  _285
REMARK  119  A    between atoms: _284  and  _287
REMARK  120  A    between atoms: _288  and  _289
REMARK  121  A    between atoms: _289  and  _290
REMARK  122  A    between atoms: _299  and  _301
REMARK  123  A    between atoms: _301  and  _302
REMARK  124  A    between atoms: _301  and  _304
REMARK  125  A    between atoms: _304  and  _305
REMARK  126  A    between atoms: _308  and  _310
REMARK  127  A    between atoms: _310  and  _311
REMARK  128  A    between atoms: _310  and  _313
REMARK  129  A    between atoms: _313  and  _314
REMARK  130  A    between atoms: _317  and  _319
REMARK  131  A    between atoms: _319  and  _320
REMARK  132  A    between atoms: _319  and  _322
REMARK  133  A    between atoms: _322  and  _323
REMARK  134  A    between atoms: _326  and  _328
REMARK  135  A    between atoms: _328  and  _329
REMARK  136  A    between atoms: _328  and  _331
REMARK  137  A    between atoms: _331  and  _332
REMARK  138  A    between atoms: _335  and  _337
REMARK  139  A    between atoms: _337  and  _338
REMARK  140  A    between atoms: _340  and  _342
REMARK  141  A    between atoms: _342  and  _343
REMARK  142  A    between atoms: _346  and  _348
REMARK  143  A    between atoms: _348  and  _349
REMARK  144  A    between atoms: _348  and  _351
REMARK  145  A    between atoms: _351  and  _352
REMARK  146  A    between atoms: _355  and  _357
REMARK  147  A    between atoms: _357  and  _358
REMARK  148  A    between atoms: _357  and  _360
REMARK  149  A    between atoms: _360  and  _361
REMARK  150  A    between atoms: _364  and  _366
REMARK  151  A    between atoms: _366  and  _367
REMARK  152  A    between atoms: _366  and  _369
REMARK  153  A    between atoms: _369  and  _370
REMARK  154  A    between atoms: _373  and  _375
REMARK  155  A    between atoms: _375  and  _376
REMARK  156  A    between atoms: _375  and  _378
REMARK  157  A    between atoms: _381  and  _383
REMARK  158  A    between atoms: _383  and  _384
REMARK  159  A    between atoms: _383  and  _386
REMARK  160  A    between atoms: _386  and  _387
REMARK  161  A    between atoms: _390  and  _392
REMARK  162  A    between atoms: _392  and  _393
REMARK  163  A    between atoms: _392  and  _395
REMARK  164  A    between atoms: _395  and  _396
REMARK  165  A    between atoms: _396  and  _397
REMARK  166  A    between atoms: _397  and  _398
REMARK  167  A    between atoms: _398  and  _399
REMARK  168  A    between atoms: _403  and  _405
REMARK  169  A    between atoms: _405  and  _406
REMARK  170  A    between atoms: _405  and  _408
REMARK  171  A    between atoms: _408  and  _409
REMARK  172  A    between atoms: _409  and  _410
REMARK  173  A    between atoms: _412  and  _414
REMARK  174  A    between atoms: _414  and  _415
REMARK  175  A    between atoms: _414  and  _417
REMARK  176  A    between atoms: _417  and  _418
REMARK  177  A    between atoms: _421  and  _423
REMARK  178  A    between atoms: _423  and  _424
REMARK  179  A    between atoms: _426  and  _428
REMARK  180  A    between atoms: _428  and  _429
REMARK  181  A    between atoms: _431  and  _433
REMARK  182  A    between atoms: _433  and  _434
REMARK  183  A    between atoms: _433  and  _436
REMARK  184  A    between atoms: _436  and  _437
REMARK  185  A    between atoms: _440  and  _442
REMARK  186  A    between atoms: _442  and  _443
REMARK  187  A    between atoms: _445  and  _447
REMARK  188  A    between atoms: _447  and  _448
REMARK  189  A    between atoms: _450  and  _452
REMARK  190  A    between atoms: _452  and  _453
REMARK  191  A    between atoms: _452  and  _455
REMARK  192  A    between atoms: _455  and  _456
REMARK  193  A    between atoms: _462  and  _464
REMARK  194  A    between atoms: _464  and  _465
REMARK  195  A    between atoms: _464  and  _467
REMARK  196  A    between atoms: _467  and  _468
REMARK  197  A    between atoms: _471  and  _473
REMARK  198  A    between atoms: _473  and  _474
REMARK  199  A    between atoms: _473  and  _476
REMARK  200  A    between atoms: _479  and  _481
REMARK  201  A    between atoms: _481  and  _482
REMARK  202  A    between atoms: _481  and  _484
REMARK  203  A    between atoms: _484  and  _485
REMARK  204  A    between atoms: _488  and  _490
REMARK  205  A    between atoms: _490  and  _491
REMARK  206  A    between atoms: _490  and  _493
REMARK  207  A    between atoms: _493  and  _494
REMARK  208  A    between atoms: _498  and  _499
REMARK  209  A    between atoms: _504  and  _506
REMARK  210  A    between atoms: _506  and  _507
REMARK  211  A    between atoms: _506  and  _509
REMARK  212  A    between atoms: _512  and  _514
REMARK  213  A    between atoms: _514  and  _515
REMARK  214  A    between atoms: _514  and  _517
REMARK  215  A    between atoms: _517  and  _518
REMARK  216  A    between atoms: _523  and  _525
REMARK  217  A    between atoms: _525  and  _526
REMARK  218  A    between atoms: _525  and  _528
REMARK  219  A    between atoms: _528  and  _529
REMARK  220  A    between atoms: _532  and  _534
REMARK  221  A    between atoms: _534  and  _535
REMARK  222  A    between atoms: _534  and  _537
REMARK  223  A    between atoms: _537  and  _538
REMARK  224  A    between atoms: _541  and  _543
REMARK  225  A    between atoms: _543  and  _544
REMARK  226  A    between atoms: _546  and  _548
REMARK  227  A    between atoms: _548  and  _549
REMARK  228  A    between atoms: _548  and  _551
REMARK  229  A    between atoms: _551  and  _552
REMARK  230  A    between atoms: _552  and  _553
REMARK  231  A    between atoms: _553  and  _554
REMARK  232  A    between atoms: _563  and  _565
REMARK  233  A    between atoms: _565  and  _566
REMARK  234  A    between atoms: _565  and  _568
REMARK  235  A    between atoms: _568  and  _569
REMARK                            x       y       z     vdW  Elec       q    Type
REMARK                         _______ _______ _______ _____ _____    ______ ____
ROOT
ATOM      1  CA  VAL A   1      25.566  24.797  18.067  0.00  0.00    +0.133 C 
ENDROOT
BRANCH   1   2
ATOM      2  CB  VAL A   1      26.237  23.884  17.026  0.00  0.00    +0.023 C 
ATOM      3  CG2 VAL A   1      25.217  23.026  16.328  0.00  0.00    +0.002 C 
ATOM      4  CG1 VAL A   1      26.989  24.730  15.990  0.00  0.00    +0.002 C 
ENDBRANCH   1   2
BRANCH   1   5
ATOM      5  N   VAL A   1      24.592  25.677  17.489  0.00  0.00    -0.239 NA
ATOM      6  H   VAL A   1      24.924  26.477  16.914  0.00  0.00    +0.142 HD
ENDBRANCH   1   5
BRANCH   1   7
ATOM      7  C   VAL A   1      26.647  25.607  18.788  0.00  0.00    +0.224 C 
ATOM      8  O   VAL A   1      26.801  26.810  18.600  0.00  0.00    -0.287 OA
ENDBRANCH   1   7
TORSDOF 3
REMARK  Name = ../refined-set-2016/1sdt/1sdt_pocket.pdb
REMARK  235 active torsions:
REMARK  status: ('A' for Active; 'I' for Inactive)
REMARK    1  A    between atoms: _1  and  _3
REMARK    2  A    between atoms: _3  and  _4
REMARK    3  A    between atoms: _3  and  _6
REMARK    4  A    between atoms: _6  and  _7
REMARK    5  A    between atoms: _7  and  _8
REMARK    6  A    between atoms: _8  and  _9
REMARK    7  A    between atoms: _18  and  _20
REMARK    8  A    between atoms: _20  and  _21
REMARK    9  A    between atoms: _20  and  _23
REMARK   10  A    between atoms: _23  and  _24
REMARK   11  A    between atoms: _27  and  _29
REMARK   12  A    between atoms: _29  and  _30
REMARK   13  A    between atoms: _29  and  _32
REMARK   14  A    between atoms: _32  and  _33
REMARK   15  A    between atoms: _36  and  _38
REMARK   16  A    between atoms: _38  and  _39
REMARK   17  A    between atoms: _38  and  _41
REMARK   18  A    between atoms: _41  and  _42
REMARK   19  A    between atoms: _45  and  _47
REMARK   20  A    between atoms: _47  and  _48
REMARK   21  A    between atoms: _47  and  _50
REMARK   22  A    between atoms: _50  and  _51
REMARK   23  A    between atoms: _54  and  _56
REMARK   24  A    between atoms: _56  and  _57
REMARK   25  A    between atoms: _56  and  _59
REMARK   26  A    between atoms: _59  and  _60
REMARK   27  A    between atoms: _63  and  _65
REMARK   28  A    between atoms: _65  and  _66
REMARK   29  A    between atoms: _68  and  _70
REMARK   30  A    between atoms: _70  and  _71
REMARK   31  A    between atoms: _74  and  _76
REMARK   32  A    between atoms: _76  and  _77
REMARK   33  A    between atoms: _76  and  _79
REMARK   34  A    between atoms: _79  and  _80
REMARK   35  A    between atoms: _83  and  _85
REMARK   36  A    between atoms: _85  and  _86
REMARK   37  A    between atoms: _85  and  _88
REMARK   38  A    between atoms: _88  and  _89
REMARK   39  A    between atoms: _92  and  _94
REMARK   40  A    between atoms: _94  and  _95
REMARK   41  A    between atoms: _94  and  _97
REMARK   42  A    between atoms: _97  and  _98
REMARK   43  A    between atoms: _101  and  _103
REMARK   44  A    between atoms: _103  and  _104
REMARK   45  A    between atoms: _103  and  _106
REMARK   46  A    between atoms: _109  and  _111
REMARK   47  A    between atoms: _111  and  _112
REMARK   48  A    between atoms: _111  and  _114
REMARK   49  A    between atoms: _114  and  _115
REMARK   50  A    between atoms: _115  and  _116
REMARK   51  A    between atoms: _116  and  _117
REMARK   52  A    between atoms: _117  and  _118
REMARK   53  A    between atoms: _122  and  _124
REMARK   54  A    between atoms: _124  and  _125
REMARK   55  A    between atoms: _124  and  _127
REMARK   56  A    between atoms: _127  and  _128
REMARK   57  A    between atoms: _128  and  _129
REMARK   58  A    between atoms: _131  and  _133
REMARK   59  A    between atoms: _133  and  _134
REMARK   60  A    between atoms: _133  and  _136
REMARK   61  A    between atoms: _136  and  _137
REMARK   62  A    between atoms: _140  and  _142
REMARK   63  A    between atoms: _142  and  _143
REMARK   64  A    between atoms: _145  and  _147
REMARK   65  A    between atoms: _147  and  _148
REMARK   66  A    between atoms: _150  and  _152
REMARK   67  A    between atoms: _152  and  _153
REMARK   68  A    between atoms: _152  and  _155
REMARK   69  A    between atoms: _155  and  _156
REMARK   70  A    between atoms: _159  and  _161
REMARK   71  A    between atoms: _161  and  _162
REMARK   72  A    between atoms: _164  and  _166
REMARK   73  A    between atoms: _166  and  _167
REMARK   74  A    between atoms: _169  and  _171
REMARK   75  A    between atoms: _171  and  _172
REMARK   76  A    between atoms: _171  and  _174
REMARK   77  A    between atoms: _174  and  _175
REMARK   78  A    between atoms: _181  and  _183
REMARK   79  A    between atoms: _183  and  _184
REMARK   80  A    between atoms: _183  and  _186
REMARK   81  A    between atoms: _186  and  _187
REMARK   82  A    between atoms: _190  and  _192
REMARK   83  A    between atoms: _192  and  _193
REMARK   84  A    between atoms: _192  and  _195
REMARK   85  A    between atoms: _198  and  _200
REMARK   86  A    between atoms: _200  and  _201
REMARK   87  A    between atoms: _200  and  _203
REMARK   88  A    between atoms: _203  and  _204
REMARK   89  A    between atoms: _207  and  _209
REMARK   90  A    between atoms: _209  and  _210
REMARK   91  A    between atoms: _209  and  _212
REMARK   92  A    between atoms: _212  and  _213
REMARK   93  A    between atoms: _217  and  _218
REMARK   94  A    between atoms: _223  and  _225
REMARK   95  A    between atoms: _225  and  _226
REMARK   96  A    between atoms: _225  and  _228
REMARK   97  A    between atoms: _231  and  _233
REMARK   98  A    between atoms: _233  and  _234
REMARK   99  A    between atoms: _233  and  _236
REMARK  100  A    between atoms: _236  and  _237
REMARK  101  A    between atoms: _242  and  _244
REMARK  102  A    between atoms: _244  and  _245
REMARK  103  A    between atoms: _244  and  _247
REMARK  104  A    between atoms: _247  and  _248
REMARK  105  A    between atoms: _251  and  _253
REMARK  106  A    between atoms: _253  and  _254
REMARK  107  A    between atoms: _253  and  _256
REMARK  108  A    between atoms: _256  and  _257
REMARK  109  A    between atoms: _260  and  _262
REMARK  110  A    between atoms: _262  and  _263
REMARK  111  A    between atoms: _265  and  _267
REMARK  112  A    between atoms: _267  and  _268
REMARK  113  A    between atoms: _267  and  _270
REMARK  114  A    between atoms: _270  and  _271
REMARK  115  A    between atoms: _271  and  _272
REMARK  116  A    between atoms: _272  and  _273
REMARK  117  A    between atoms: _282  and  _284
REMARK  118  A    between atoms: _284  and  _285
REMARK  119  A    between atoms: _284  and  _287
REMARK  120  A    between atoms: _288  and  _289
REMARK  121  A    between atoms: _289  and  _290
REMARK  122  A    between atoms: _299  and  _301
REMARK  123  A    between atoms: _301  and  _302
REMARK  124  A    between atoms: _301  and  _304
REMARK  125  A    between atoms: _304  and  _305
REMARK  126  A    between atoms: _308  and  _310
REMARK  127  A    between atoms: _310  and  _311
REMARK  128  A    between atoms: _310  and  _313
REMARK  129  A    between atoms: _313  and  _314
REMARK  130  A    between atoms: _317  and  _319
REMARK  131  A    between atoms: _319  and  _320
REMARK  132  A    between atoms: _319  and  _322
REMARK  133  A    between atoms: _322  and  _323
REMARK  134  A    between atoms: _326  and  _328
REMARK  135  A    between atoms: _328  and  _329
REMARK  136  A    between atoms: _328  and  _331
REMARK  137  A    between atoms: _331  and  _332
REMARK  138  A    between atoms: _335  and  _337
REMARK  139  A    between atoms: _337  and  _338
REMARK  140  A    between atoms: _340  and  _342
REMARK  141  A    between atoms: _342  and  _343
REMARK  142  A    between atoms: _346  and  _348
REMARK  143  A    between atoms: _348  and  _349
REMARK  144  A    between atoms: _348  and  _351
REMARK  145  A    between atoms: _351  and  _352
REMARK  146  A    between atoms: _355  and  _357
REMARK  147  A    between atoms: _357  and  _358
REMARK  148  A    between atoms: _357  and  _360
REMARK  149  A    between atoms: _360  and  _361
REMARK  150  A    between atoms: _364  and  _366
REMARK  151  A    between atoms: _366  and  _367
REMARK  152  A    between atoms: _366  and  _369
REMARK  153  A    between atoms: _369  and  _370
REMARK  154  A    between atoms: _373  and  _375
REMARK  155  A    between atoms: _375  and  _376
REMARK  156  A    between atoms: _375  and  _378
REMARK  157  A    between atoms: _381  and  _383
REMARK  158  A    between atoms: _383  and  _384
REMARK  159  A    between atoms: _383  and  _386
REMARK  160  A    between atoms: _386  and  _387
REMARK  161  A    between atoms: _390  and  _392
REMARK  162  A    between atoms: _392  and  _393
REMARK  163  A    between atoms: _392  and  _395
REMARK  164  A    between atoms: _395  and  _396
REMARK  165  A    between atoms: _396  and  _397
REMARK  166  A    between atoms: _397  and  _398
REMARK  167  A    between atoms: _398  and  _399
REMARK  168  A    between atoms: _403  and  _405
REMARK  169  A    between atoms: _405  and  _406
REMARK  170  A    between atoms: _405  and  _408
REMARK  171  A    between atoms: _408  and  _409
REMARK  172  A    between atoms: _409  and  _410
REMARK  173  A    between atoms: _412  and  _414
REMARK  174  A    between atoms: _414  and  _415
REMARK  175  A    between atoms: _414  and  _417
REMARK  176  A    between atoms: _417  and  _418
REMARK  177  A    between atoms: _421  and  _423
REMARK  178  A    between atoms: _423  and  _424
REMARK  179  A    between atoms: _426  and  _428
REMARK  180  A    between atoms: _428  and  _429
REMARK  181  A    between atoms: _431  and  _433
REMARK  182  A    between atoms: _433  and  _434
REMARK  183  A    between atoms: _433  and  _436
REMARK  184  A    between atoms: _436  and  _437
REMARK  185  A    between atoms: _440  and  _442
REMARK  186  A    between atoms: _442  and  _443
REMARK  187  A    between atoms: _445  and  _447
REMARK  188  A    between atoms: _447  and  _448
REMARK  189  A    between atoms: _450  and  _452
REMARK  190  A    between atoms: _452  and  _453
REMARK  191  A    between atoms: _452  and  _455
REMARK  192  A    between atoms: _455  and  _456
REMARK  193  A    between atoms: _462  and  _464
REMARK  194  A    between atoms: _464  and  _465
REMARK  195  A    between atoms: _464  and  _467
REMARK  196  A    between atoms: _467  and  _468
REMARK  197  A    between atoms: _471  and  _473
REMARK  198  A    between atoms: _473  and  _474
REMARK  199  A    between atoms: _473  and  _476
REMARK  200  A    between atoms: _479  and  _481
REMARK  201  A    between atoms: _481  and  _482
REMARK  202  A    between atoms: _481  and  _484
REMARK  203  A    between atoms: _484  and  _485
REMARK  204  A    between atoms: _488  and  _490
REMARK  205  A    between atoms: _490  and  _491
REMARK  206  A    between atoms: _490  and  _493
REMARK  207  A    between atoms: _493  and  _494
REMARK  208  A    between atoms: _498  and  _499
REMARK  209  A    between atoms: _504  and  _506
REMARK  210  A    between atoms: _506  and  _507
REMARK  211  A    between atoms: _506  and  _509
REMARK  212  A    between atoms: _512  and  _514
REMARK  213  A    between atoms: _514  and  _515
REMARK  214  A    between atoms: _514  and  _517
REMARK  215  A    between atoms: _517  and  _518
REMARK  216  A    between atoms: _523  and  _525
REMARK  217  A    between atoms: _525  and  _526
REMARK  218  A    between atoms: _525  and  _528
REMARK  219  A    between atoms: _528  and  _529
REMARK  220  A    between atoms: _532  and  _534
REMARK  221  A    between atoms: _534  and  _535
REMARK  222  A    between atoms: _534  and  _537
REMARK  223  A    between atoms: _537  and  _538
REMARK  224  A    between atoms: _541  and  _543
REMARK  225  A    between atoms: _543  and  _544
REMARK  226  A    between atoms: _546  and  _548
REMARK  227  A    between atoms: _548  and  _549
REMARK  228  A    between atoms: _548  and  _551
REMARK  229  A    between atoms: _551  and  _552
REMARK  230  A    between atoms: _552  and  _553
REMARK  231  A    between atoms: _553  and  _554
REMARK  232  A    between atoms: _563  and  _565
REMARK  233  A    between atoms: _565  and  _566
REMARK  234  A    between atoms: _565  and  _568
REMARK  235  A    between atoms: _568  and  _569
REMARK                            x       y       z     vdW  Elec       q    Type
REMARK                         _______ _______ _______ _____ _____    ______ ____
ROOT
ATOM      1  CA  LEU A   1      30.324  21.479  16.793  0.00  0.00    +0.133 C 
ENDROOT
BRANCH   1   2
ATOM      2  N   LEU A   1      31.531  20.751  16.420  0.00  0.00    -0.239 NA
ATOM      3  H   LEU A   1      31.493  20.087  15.620  0.00  0.00    +0.142 HD
ENDBRANCH   1   2
BRANCH   1   4
ATOM      4  C   LEU A   1      29.468  20.591  17.658  0.00  0.00    +0.224 C 
ATOM      5  O   LEU A   1      29.318  19.394  17.351  0.00  0.00    -0.287 OA
ENDBRANCH   1   4
BRANCH   1   6
ATOM      6  CB  LEU A   1      29.553  21.975  15.563  0.00  0.00    +0.025 C 
BRANCH   6   7
ATOM      7  CG  LEU A   1      30.423  22.606  14.480  0.00  0.00    +0.002 C 
ATOM      8  CD2 LEU A   1      31.151  23.807  15.032  0.00  0.00    +0.000 C 
ATOM      9  CD1 LEU A   1      29.549  22.975  13.279  0.00  0.00    +0.000 C 
ENDBRANCH   6   7
ENDBRANCH   1   6
TORSDOF 4
REMARK  Name = ../refined-set-2016/1sdt/1sdt_pocket.pdb
REMARK  235 active torsions:
REMARK  status: ('A' for Active; 'I' for Inactive)
REMARK    1  A    between atoms: _1  and  _3
REMARK    2  A    between atoms: _3  and  _4
REMARK    3  A    between atoms: _3  and  _6
REMARK    4  A    between atoms: _6  and  _7
REMARK    5  A    between atoms: _7  and  _8
REMARK    6  A    between atoms: _8  and  _9
REMARK    7  A    between atoms: _18  and  _20
REMARK    8  A    between atoms: _20  and  _21
REMARK    9  A    between atoms: _20  and  _23
REMARK   10  A    between atoms: _23  and  _24
REMARK   11  A    between atoms: _27  and  _29
REMARK   12  A    between atoms: _29  and  _30
REMARK   13  A    between atoms: _29  and  _32
REMARK   14  A    between atoms: _32  and  _33
REMARK   15  A    between atoms: _36  and  _38
REMARK   16  A    between atoms: _38  and  _39
REMARK   17  A    between atoms: _38  and  _41
REMARK   18  A    between atoms: _41  and  _42
REMARK   19  A    between atoms: _45  and  _47
REMARK   20  A    between atoms: _47  and  _48
REMARK   21  A    between atoms: _47  and  _50
REMARK   22  A    between atoms: _50  and  _51
REMARK   23  A    between atoms: _54  and  _56
REMARK   24  A    between atoms: _56  and  _57
REMARK   25  A    between atoms: _56  and  _59
REMARK   26  A    between atoms: _59  and  _60
REMARK   27  A    between atoms: _63  and  _65
REMARK   28  A    between atoms: _65  and  _66
REMARK   29  A    between atoms: _68  and  _70
REMARK   30  A    between atoms: _70  and  _71
REMARK   31  A    between atoms: _74  and  _76
REMARK   32  A    between atoms: _76  and  _77
REMARK   33  A    between atoms: _76  and  _79
REMARK   34  A    between atoms: _79  and  _80
REMARK   35  A    between atoms: _83  and  _85
REMARK   36  A    between atoms: _85  and  _86
REMARK   37  A    between atoms: _85  and  _88
REMARK   38  A    between atoms: _88  and  _89
REMARK   39  A    between atoms: _92  and  _94
REMARK   40  A    between atoms: _94  and  _95
REMARK   41  A    between atoms: _94  and  _97
REMARK   42  A    between atoms: _97  and  _98
REMARK   43  A    between atoms: _101  and  _103
REMARK   44  A    between atoms: _103  and  _104
REMARK   45  A    between atoms: _103  and  _106
REMARK   46  A    between atoms: _109  and  _111
REMARK   47  A    between atoms: _111  and  _112
REMARK   48  A    between atoms: _111  and  _114
REMARK   49  A    between atoms: _114  and  _115
REMARK   50  A    between atoms: _115  and  _116
REMARK   51  A    between atoms: _116  and  _117
REMARK   52  A    between atoms: _117  and  _118
REMARK   53  A    between atoms: _122  and  _124
REMARK   54  A    between atoms: _124  and  _125
REMARK   55  A    between atoms: _124  and  _127
REMARK   56  A    between atoms: _127  and  _128
REMARK   57  A    between atoms: _128  and  _129
REMARK   58  A    between atoms: _131  and  _133
REMARK   59  A    between atoms: _133  and  _134
REMARK   60  A    between atoms: _133  and  _136
REMARK   61  A    between atoms: _136  and  _137
REMARK   62  A    between atoms: _140  and  _142
REMARK   63  A    between atoms: _142  and  _143
REMARK   64  A    between atoms: _145  and  _147
REMARK   65  A    between atoms: _147  and  _148
REMARK   66  A    between atoms: _150  and  _152
REMARK   67  A    between atoms: _152  and  _153
REMARK   68  A    between atoms: _152  and  _155
REMARK   69  A    between atoms: _155  and  _156
REMARK   70  A    between atoms: _159  and  _161
REMARK   71  A    between atoms: _161  and  _162
REMARK   72  A    between atoms: _164  and  _166
REMARK   73  A    between atoms: _166  and  _167
REMARK   74  A    between atoms: _169  and  _171
REMARK   75  A    between atoms: _171  and  _172
REMARK   76  A    between atoms: _171  and  _174
REMARK   77  A    between atoms: _174  and  _175
REMARK   78  A    between atoms: _181  and  _183
REMARK   79  A    between atoms: _183  and  _184
REMARK   80  A    between atoms: _183  and  _186
REMARK   81  A    between atoms: _186  and  _187
REMARK   82  A    between atoms: _190  and  _192
REMARK   83  A    between atoms: _192  and  _193
REMARK   84  A    between atoms: _192  and  _195
REMARK   85  A    between atoms: _198  and  _200
REMARK   86  A    between atoms: _200  and  _201
REMARK   87  A    between atoms: _200  and  _203
REMARK   88  A    between atoms: _203  and  _204
REMARK   89  A    between atoms: _207  and  _209
REMARK   90  A    between atoms: _209  and  _210
REMARK   91  A    between atoms: _209  and  _212
REMARK   92  A    between atoms: _212  and  _213
REMARK   93  A    between atoms: _217  and  _218
REMARK   94  A    between atoms: _223  and  _225
REMARK   95  A    between atoms: _225  and  _226
REMARK   96  A    between atoms: _225  and  _228
REMARK   97  A    between atoms: _231  and  _233
REMARK   98  A    between atoms: _233  and  _234
REMARK   99  A    between atoms: _233  and  _236
REMARK  100  A    between atoms: _236  and  _237
REMARK  101  A    between atoms: _242  and  _244
REMARK  102  A    between atoms: _244  and  _245
REMARK  103  A    between atoms: _244  and  _247
REMARK  104  A    between atoms: _247  and  _248
REMARK  105  A    between atoms: _251  and  _253
REMARK  106  A    between atoms: _253  and  _254
REMARK  107  A    between atoms: _253  and  _256
REMARK  108  A    between atoms: _256  and  _257
REMARK  109  A    between atoms: _260  and  _262
REMARK  110  A    between atoms: _262  and  _263
REMARK  111  A    between atoms: _265  and  _267
REMARK  112  A    between atoms: _267  and  _268
REMARK  113  A    between atoms: _267  and  _270
REMARK  114  A    between atoms: _270  and  _271
REMARK  115  A    between atoms: _271  and  _272
REMARK  116  A    between atoms: _272  and  _273
REMARK  117  A    between atoms: _282  and  _284
REMARK  118  A    between atoms: _284  and  _285
REMARK  119  A    between atoms: _284  and  _287
REMARK  120  A    between atoms: _288  and  _289
REMARK  121  A    between atoms: _289  and  _290
REMARK  122  A    between atoms: _299  and  _301
REMARK  123  A    between atoms: _301  and  _302
REMARK  124  A    between atoms: _301  and  _304
REMARK  125  A    between atoms: _304  and  _305
REMARK  126  A    between atoms: _308  and  _310
REMARK  127  A    between atoms: _310  and  _311
REMARK  128  A    between atoms: _310  and  _313
REMARK  129  A    between atoms: _313  and  _314
REMARK  130  A    between atoms: _317  and  _319
REMARK  131  A    between atoms: _319  and  _320
REMARK  132  A    between atoms: _319  and  _322
REMARK  133  A    between atoms: _322  and  _323
REMARK  134  A    between atoms: _326  and  _328
REMARK  135  A    between atoms: _328  and  _329
REMARK  136  A    between atoms: _328  and  _331
REMARK  137  A    between atoms: _331  and  _332
REMARK  138  A    between atoms: _335  and  _337
REMARK  139  A    between atoms: _337  and  _338
REMARK  140  A    between atoms: _340  and  _342
REMARK  141  A    between atoms: _342  and  _343
REMARK  142  A    between atoms: _346  and  _348
REMARK  143  A    between atoms: _348  and  _349
REMARK  144  A    between atoms: _348  and  _351
REMARK  145  A    between atoms: _351  and  _352
REMARK  146  A    between atoms: _355  and  _357
REMARK  147  A    between atoms: _357  and  _358
REMARK  148  A    between atoms: _357  and  _360
REMARK  149  A    between atoms: _360  and  _361
REMARK  150  A    between atoms: _364  and  _366
REMARK  151  A    between atoms: _366  and  _367
REMARK  152  A    between atoms: _366  and  _369
REMARK  153  A    between atoms: _369  and  _370
REMARK  154  A    between atoms: _373  and  _375
REMARK  155  A    between atoms: _375  and  _376
REMARK  156  A    between atoms: _375  and  _378
REMARK  157  A    between atoms: _381  and  _383
REMARK  158  A    between atoms: _383  and  _384
REMARK  159  A    between atoms: _383  and  _386
REMARK  160  A    between atoms: _386  and  _387
REMARK  161  A    between atoms: _390  and  _392
REMARK  162  A    between atoms: _392  and  _393
REMARK  163  A    between atoms: _392  and  _395
REMARK  164  A    between atoms: _395  and  _396
REMARK  165  A    between atoms: _396  and  _397
REMARK  166  A    between atoms: _397  and  _398
REMARK  167  A    between atoms: _398  and  _399
REMARK  168  A    between atoms: _403  and  _405
REMARK  169  A    between atoms: _405  and  _406
REMARK  170  A    between atoms: _405  and  _408
REMARK  171  A    between atoms: _408  and  _409
REMARK  172  A    between atoms: _409  and  _410
REMARK  173  A    between atoms: _412  and  _414
REMARK  174  A    between atoms: _414  and  _415
REMARK  175  A    between atoms: _414  and  _417
REMARK  176  A    between atoms: _417  and  _418
REMARK  177  A    between atoms: _421  and  _423
REMARK  178  A    between atoms: _423  and  _424
REMARK  179  A    between atoms: _426  and  _428
REMARK  180  A    between atoms: _428  and  _429
REMARK  181  A    between atoms: _431  and  _433
REMARK  182  A    between atoms: _433  and  _434
REMARK  183  A    between atoms: _433  and  _436
REMARK  184  A    between atoms: _436  and  _437
REMARK  185  A    between atoms: _440  and  _442
REMARK  186  A    between atoms: _442  and  _443
REMARK  187  A    between atoms: _445  and  _447
REMARK  188  A    between atoms: _447  and  _448
REMARK  189  A    between atoms: _450  and  _452
REMARK  190  A    between atoms: _452  and  _453
REMARK  191  A    between atoms: _452  and  _455
REMARK  192  A    between atoms: _455  and  _456
REMARK  193  A    between atoms: _462  and  _464
REMARK  194  A    between atoms: _464  and  _465
REMARK  195  A    between atoms: _464  and  _467
REMARK  196  A    between atoms: _467  and  _468
REMARK  197  A    between atoms: _471  and  _473
REMARK  198  A    between atoms: _473  and  _474
REMARK  199  A    between atoms: _473  and  _476
REMARK  200  A    between atoms: _479  and  _481
REMARK  201  A    between atoms: _481  and  _482
REMARK  202  A    between atoms: _481  and  _484
REMARK  203  A    between atoms: _484  and  _485
REMARK  204  A    between atoms: _488  and  _490
REMARK  205  A    between atoms: _490  and  _491
REMARK  206  A    between atoms: _490  and  _493
REMARK  207  A    between atoms: _493  and  _494
REMARK  208  A    between atoms: _498  and  _499
REMARK  209  A    between atoms: _504  and  _506
REMARK  210  A    between atoms: _506  and  _507
REMARK  211  A    between atoms: _506  and  _509
REMARK  212  A    between atoms: _512  and  _514
REMARK  213  A    between atoms: _514  and  _515
REMARK  214  A    between atoms: _514  and  _517
REMARK  215  A    between atoms: _517  and  _518
REMARK  216  A    between atoms: _523  and  _525
REMARK  217  A    between atoms: _525  and  _526
REMARK  218  A    between atoms: _525  and  _528
REMARK  219  A    between atoms: _528  and  _529
REMARK  220  A    between atoms: _532  and  _534
REMARK  221  A    between atoms: _534  and  _535
REMARK  222  A    between atoms: _534  and  _537
REMARK  223  A    between atoms: _537  and  _538
REMARK  224  A    between atoms: _541  and  _543
REMARK  225  A    between atoms: _543  and  _544
REMARK  226  A    between atoms: _546  and  _548
REMARK  227  A    between atoms: _548  and  _549
REMARK  228  A    between atoms: _548  and  _551
REMARK  229  A    between atoms: _551  and  _552
REMARK  230  A    between atoms: _552  and  _553
REMARK  231  A    between atoms: _553  and  _554
REMARK  232  A    between atoms: _563  and  _565
REMARK  233  A    between atoms: _565  and  _566
REMARK  234  A    between atoms: _565  and  _568
REMARK  235  A    between atoms: _568  and  _569
REMARK                            x       y       z     vdW  Elec       q    Type
REMARK                         _______ _______ _______ _____ _____    ______ ____
ROOT
ATOM      1  CA  ILE A   5      28.217  13.472  12.005  0.00  0.00    +0.149 C 
ENDROOT
BRANCH   1   3
ATOM      2  C   ASN A   4      27.085  12.221  13.804  0.00  0.00    +0.241 C 
ATOM      3  N   ILE A   5      27.716  13.313  13.368  0.00  0.00    -0.297 N 
ATOM      4  H   ILE A   5      27.859  14.096  14.037  0.00  0.00    +0.150 HD
ATOM      5  O   ASN A   4      26.999  11.198  13.154  0.00  0.00    -0.273 OA
BRANCH   2   6
ATOM      6  CA  ASN A   4      26.472  12.299  15.201  0.00  0.00    +0.158 C 
BRANCH   6   8
ATOM      7  C   VAL A   3      24.152  12.478  14.593  0.00  0.00    +0.241 C 
ATOM      8  N   ASN A   4      25.138  11.781  15.123  0.00  0.00    -0.297 N 
ATOM      9  H   ASN A   4      24.942  10.830  15.494  0.00  0.00    +0.150 HD
ATOM     10  O   VAL A   3      24.318  13.652  14.245  0.00  0.00    -0.273 OA
BRANCH   7  11
ATOM     11  CA  VAL A   3      22.789  11.783  14.454  0.00  0.00    +0.149 C 
BRANCH  11  14
ATOM     12  C   PRO A   2      20.594  12.673  15.112  0.00  0.00    +0.241 C 
ATOM     13  O   PRO A   2      20.195  11.567  15.515  0.00  0.00    -0.273 OA
ATOM     14  N   VAL A   3      21.774  12.818  14.543  0.00  0.00    -0.297 N 
ATOM     15  H   VAL A   3      21.995  13.745  14.126  0.00  0.00    +0.150 HD
BRANCH  12  19
ATOM     16  C   THR A   1      21.151  15.640  16.013  0.00  0.00    +0.244 C 
ATOM     17  O   THR A   1      21.329  15.017  17.056  0.00  0.00    -0.273 OA
ATOM     18  N   PRO A   2      20.379  15.194  15.025  0.00  0.00    -0.272 N 
ATOM     19  CA  PRO A   2      19.690  13.908  15.185  0.00  0.00    +0.152 C 
ATOM     20  CB  PRO A   2      18.710  13.881  14.009  0.00  0.00    +0.031 C 
ATOM     21  CG  PRO A   2      19.190  14.881  13.050  0.00  0.00    +0.024 C 
ATOM     22  CD  PRO A   2      20.054  15.871  13.767  0.00  0.00    +0.094 C 
BRANCH  16  23
ATOM     23  CA  THR A   1      21.803  17.006  15.811  0.00  0.00    +0.172 C 
BRANCH  23  24
ATOM     24  CB  THR A   1      23.261  16.879  15.301  0.00  0.00    +0.135 C 
ATOM     25  CG2 THR A   1      24.195  16.206  16.293  0.00  0.00    +0.034 C 
BRANCH  24  26
ATOM     26  OG1 THR A   1      23.180  16.103  14.121  0.00  0.00    -0.383 OA
ATOM     27  HG1 THR A   1      22.792  15.218  14.336  0.00  0.00    +0.210 HD
ENDBRANCH  24  26
ENDBRANCH  23  24
BRANCH  23  28
ATOM     28  N   THR A   1      21.754  17.723  17.066  0.00  0.00    -0.236 NA
ATOM     29  H   THR A   1      22.543  17.606  17.734  0.00  0.00    +0.142 HD
ENDBRANCH  23  28
ENDBRANCH  16  23
ENDBRANCH  12  19
ENDBRANCH  11  14
BRANCH  11  30
ATOM     30  CB  VAL A   3      22.765  10.927  13.187  0.00  0.00    +0.027 C 
ATOM     31  CG2 VAL A   3      21.380  10.329  12.942  0.00  0.00    +0.002 C 
ATOM     32  CG1 VAL A   3      23.182  11.677  11.924  0.00  0.00    +0.002 C 
ENDBRANCH  11  30
ENDBRANCH   7  11
ENDBRANCH   6   8
BRANCH   6  33
ATOM     33  CB  ASN A   4      27.314  11.542  16.187  0.00  0.00    +0.114 C 
BRANCH  33  34
ATOM     34  CG  ASN A   4      26.784  11.605  17.605  0.00  0.00    +0.222 C 
ATOM     35  ND2 ASN A   4      26.760  10.450  18.254  0.00  0.00    -0.329 N 
ATOM     36 HD21 ASN A   4      26.421  10.412  19.236  0.00  0.00    +0.145 HD
ATOM     37 HD22 ASN A   4      27.081   9.581  17.781  0.00  0.00    +0.145 HD
ATOM     38  OD1 ASN A   4      26.424  12.669  18.092  0.00  0.00    -0.275 OA
ENDBRANCH  33  34
ENDBRANCH   6  33
ENDBRANCH   2   6
ENDBRANCH   1   3
BRANCH   1  39
ATOM     39  C   ILE A   5      29.697  13.799  11.979  0.00  0.00    +0.241 C 
ATOM     40  O   ILE A   5      30.124  14.746  12.618  0.00  0.00    -0.273 OA
ATOM     41  N   ILE A   6      30.469  12.970  11.247  0.00  0.00    -0.297 N 
ATOM     42  H   ILE A   6      30.051  12.086  10.893  0.00  0.00    +0.150 HD
BRANCH  41  43
ATOM     43  CA  ILE A   6      31.876  13.258  10.926  0.00  0.00    +0.149 C 
BRANCH  43  44
ATOM     44  C   ILE A   6      31.900  13.901   9.557  0.00  0.00    +0.241 C 
ATOM     45  N   GLY A   7      32.202  15.184   9.507  0.00  0.00    -0.295 N 
ATOM     46  H   GLY A   7      32.443  15.675  10.392  0.00  0.00    +0.150 HD
ATOM     47  O   ILE A   6      31.594  13.237   8.558  0.00  0.00    -0.273 OA
BRANCH  45  48
ATOM     48  CA  GLY A   7      32.211  15.940   8.265  0.00  0.00    +0.176 C 
BRANCH  48  49
ATOM     49  C   GLY A   7      33.600  16.037   7.649  0.00  0.00    +0.243 C 
ATOM     50  O   GLY A   7      34.587  15.508   8.152  0.00  0.00    -0.273 OA
ATOM     51  N   ARG A   8      33.650  16.762   6.554  0.00  0.00    -0.298 N 
ATOM     52  H   ARG A   8      32.820  17.313   6.256  0.00  0.00    +0.150 HD
BRANCH  51  53
ATOM     53  CA  ARG A   8      34.875  16.792   5.755  0.00  0.00    +0.137 C 
BRANCH  53  54
ATOM     54  C   ARG A   8      36.071  17.335   6.504  0.00  0.00    +0.227 C 
ATOM     55  O   ARG A   8      37.188  16.936   6.211  0.00  0.00    -0.286 OA
ENDBRANCH  53  54
BRANCH  53  56
ATOM     56  CB  ARG A   8      34.685  17.654   4.497  0.00  0.00    +0.031 C 
BRANCH  56  57
ATOM     57  CG  ARG A   8      33.723  17.034   3.497  0.00  0.00    +0.045 C 
BRANCH  57  58
ATOM     58  CD  ARG A   8      33.667  17.738   2.177  0.00  0.00    +0.174 C 
BRANCH  58  59
ATOM     59  NE  ARG A   8      33.244  19.136   2.348  0.00  0.00    -0.265 N 
ATOM     60  HE  ARG A   8      32.221  19.291   2.452  0.00  0.00    +0.259 HD
ATOM     61  CZ  ARG A   8      34.000  20.222   2.386  0.00  0.00    +0.342 C 
ATOM     62  NH2 ARG A   8      33.412  21.406   2.581  0.00  0.00    -0.292 N 
ATOM     63 HH21 ARG A   8      32.380  21.461   2.699  0.00  0.00    +0.255 HD
ATOM     64 HH22 ARG A   8      33.986  22.273   2.614  0.00  0.00    +0.255 HD
ATOM     65  NH1 ARG A   8      35.326  20.149   2.221  0.00  0.00    -0.292 N 
ATOM     66 HH11 ARG A   8      35.903  21.014   2.254  0.00  0.00    +0.255 HD
ATOM     67 HH12 ARG A   8      35.780  19.227   2.059  0.00  0.00    +0.255 HD
ENDBRANCH  58  59
ENDBRANCH  57  58
ENDBRANCH  56  57
ENDBRANCH  53  56
ENDBRANCH  51  53
ENDBRANCH  48  49
ENDBRANCH  45  48
ENDBRANCH  43  44
BRANCH  43  68
ATOM     68  CB  ILE A   6      32.773  12.032  10.984  0.00  0.00    +0.027 C 
ATOM     69  CG2 ILE A   6      34.222  12.412  10.686  0.00  0.00    +0.002 C 
BRANCH  68  70
ATOM     70  CG1 ILE A   6      32.651  11.297  12.327  0.00  0.00    +0.002 C 
ATOM     71  CD1 ILE A   6      32.946  12.130  13.553  0.00  0.00    +0.000 C 
ENDBRANCH  68  70
ENDBRANCH  43  68
ENDBRANCH  41  43
ENDBRANCH   1  39
BRANCH   1  72
ATOM     72  CB  ILE A   5      27.434  14.599  11.302  0.00  0.00    +0.027 C 
ATOM     73  CG2 ILE A   5      28.096  14.949   9.965  0.00  0.00    +0.002 C 
BRANCH  72  74
ATOM     74  CG1 ILE A   5      25.941  14.252  11.159  0.00  0.00    +0.002 C 
ATOM     75  CD1 ILE A   5      25.082  15.407  10.859  0.00  0.00    +0.000 C 
ENDBRANCH  72  74
ENDBRANCH   1  72
TORSDOF 28
REMARK  Name = ../refined-set-2016/1sdt/1sdt_pocket.pdb
REMARK  235 active torsions:
REMARK  status: ('A' for Active; 'I' for Inactive)
REMARK    1  A    between atoms: _1  and  _3
REMARK    2  A    between atoms: _3  and  _4
REMARK    3  A    between atoms: _3  and  _6
REMARK    4  A    between atoms: _6  and  _7
REMARK    5  A    between atoms: _7  and  _8
REMARK    6  A    between atoms: _8  and  _9
REMARK    7  A    between atoms: _18  and  _20
REMARK    8  A    between atoms: _20  and  _21
REMARK    9  A    between atoms: _20  and  _23
REMARK   10  A    between atoms: _23  and  _24
REMARK   11  A    between atoms: _27  and  _29
REMARK   12  A    between atoms: _29  and  _30
REMARK   13  A    between atoms: _29  and  _32
REMARK   14  A    between atoms: _32  and  _33
REMARK   15  A    between atoms: _36  and  _38
REMARK   16  A    between atoms: _38  and  _39
REMARK   17  A    between atoms: _38  and  _41
REMARK   18  A    between atoms: _41  and  _42
REMARK   19  A    between atoms: _45  and  _47
REMARK   20  A    between atoms: _47  and  _48
REMARK   21  A    between atoms: _47  and  _50
REMARK   22  A    between atoms: _50  and  _51
REMARK   23  A    between atoms: _54  and  _56
REMARK   24  A    between atoms: _56  and  _57
REMARK   25  A    between atoms: _56  and  _59
REMARK   26  A    between atoms: _59  and  _60
REMARK   27  A    between atoms: _63  and  _65
REMARK   28  A    between atoms: _65  and  _66
REMARK   29  A    between atoms: _68  and  _70
REMARK   30  A    between atoms: _70  and  _71
REMARK   31  A    between atoms: _74  and  _76
REMARK   32  A    between atoms: _76  and  _77
REMARK   33  A    between atoms: _76  and  _79
REMARK   34  A    between atoms: _79  and  _80
REMARK   35  A    between atoms: _83  and  _85
REMARK   36  A    between atoms: _85  and  _86
REMARK   37  A    between atoms: _85  and  _88
REMARK   38  A    between atoms: _88  and  _89
REMARK   39  A    between atoms: _92  and  _94
REMARK   40  A    between atoms: _94  and  _95
REMARK   41  A    between atoms: _94  and  _97
REMARK   42  A    between atoms: _97  and  _98
REMARK   43  A    between atoms: _101  and  _103
REMARK   44  A    between atoms: _103  and  _104
REMARK   45  A    between atoms: _103  and  _106
REMARK   46  A    between atoms: _109  and  _111
REMARK   47  A    between atoms: _111  and  _112
REMARK   48  A    between atoms: _111  and  _114
REMARK   49  A    between atoms: _114  and  _115
REMARK   50  A    between atoms: _115  and  _116
REMARK   51  A    between atoms: _116  and  _117
REMARK   52  A    between atoms: _117  and  _118
REMARK   53  A    between atoms: _122  and  _124
REMARK   54  A    between atoms: _124  and  _125
REMARK   55  A    between atoms: _124  and  _127
REMARK   56  A    between atoms: _127  and  _128
REMARK   57  A    between atoms: _128  and  _129
REMARK   58  A    between atoms: _131  and  _133
REMARK   59  A    between atoms: _133  and  _134
REMARK   60  A    between atoms: _133  and  _136
REMARK   61  A    between atoms: _136  and  _137
REMARK   62  A    between atoms: _140  and  _142
REMARK   63  A    between atoms: _142  and  _143
REMARK   64  A    between atoms: _145  and  _147
REMARK   65  A    between atoms: _147  and  _148
REMARK   66  A    between atoms: _150  and  _152
REMARK   67  A    between atoms: _152  and  _153
REMARK   68  A    between atoms: _152  and  _155
REMARK   69  A    between atoms: _155  and  _156
REMARK   70  A    between atoms: _159  and  _161
REMARK   71  A    between atoms: _161  and  _162
REMARK   72  A    between atoms: _164  and  _166
REMARK   73  A    between atoms: _166  and  _167
REMARK   74  A    between atoms: _169  and  _171
REMARK   75  A    between atoms: _171  and  _172
REMARK   76  A    between atoms: _171  and  _174
REMARK   77  A    between atoms: _174  and  _175
REMARK   78  A    between atoms: _181  and  _183
REMARK   79  A    between atoms: _183  and  _184
REMARK   80  A    between atoms: _183  and  _186
REMARK   81  A    between atoms: _186  and  _187
REMARK   82  A    between atoms: _190  and  _192
REMARK   83  A    between atoms: _192  and  _193
REMARK   84  A    between atoms: _192  and  _195
REMARK   85  A    between atoms: _198  and  _200
REMARK   86  A    between atoms: _200  and  _201
REMARK   87  A    between atoms: _200  and  _203
REMARK   88  A    between atoms: _203  and  _204
REMARK   89  A    between atoms: _207  and  _209
REMARK   90  A    between atoms: _209  and  _210
REMARK   91  A    between atoms: _209  and  _212
REMARK   92  A    between atoms: _212  and  _213
REMARK   93  A    between atoms: _217  and  _218
REMARK   94  A    between atoms: _223  and  _225
REMARK   95  A    between atoms: _225  and  _226
REMARK   96  A    between atoms: _225  and  _228
REMARK   97  A    between atoms: _231  and  _233
REMARK   98  A    between atoms: _233  and  _234
REMARK   99  A    between atoms: _233  and  _236
REMARK  100  A    between atoms: _236  and  _237
REMARK  101  A    between atoms: _242  and  _244
REMARK  102  A    between atoms: _244  and  _245
REMARK  103  A    between atoms: _244  and  _247
REMARK  104  A    between atoms: _247  and  _248
REMARK  105  A    between atoms: _251  and  _253
REMARK  106  A    between atoms: _253  and  _254
REMARK  107  A    between atoms: _253  and  _256
REMARK  108  A    between atoms: _256  and  _257
REMARK  109  A    between atoms: _260  and  _262
REMARK  110  A    between atoms: _262  and  _263
REMARK  111  A    between atoms: _265  and  _267
REMARK  112  A    between atoms: _267  and  _268
REMARK  113  A    between atoms: _267  and  _270
REMARK  114  A    between atoms: _270  and  _271
REMARK  115  A    between atoms: _271  and  _272
REMARK  116  A    between atoms: _272  and  _273
REMARK  117  A    between atoms: _282  and  _284
REMARK  118  A    between atoms: _284  and  _285
REMARK  119  A    between atoms: _284  and  _287
REMARK  120  A    between atoms: _288  and  _289
REMARK  121  A    between atoms: _289  and  _290
REMARK  122  A    between atoms: _299  and  _301
REMARK  123  A    between atoms: _301  and  _302
REMARK  124  A    between atoms: _301  and  _304
REMARK  125  A    between atoms: _304  and  _305
REMARK  126  A    between atoms: _308  and  _310
REMARK  127  A    between atoms: _310  and  _311
REMARK  128  A    between atoms: _310  and  _313
REMARK  129  A    between atoms: _313  and  _314
REMARK  130  A    between atoms: _317  and  _319
REMARK  131  A    between atoms: _319  and  _320
REMARK  132  A    between atoms: _319  and  _322
REMARK  133  A    between atoms: _322  and  _323
REMARK  134  A    between atoms: _326  and  _328
REMARK  135  A    between atoms: _328  and  _329
REMARK  136  A    between atoms: _328  and  _331
REMARK  137  A    between atoms: _331  and  _332
REMARK  138  A    between atoms: _335  and  _337
REMARK  139  A    between atoms: _337  and  _338
REMARK  140  A    between atoms: _340  and  _342
REMARK  141  A    between atoms: _342  and  _343
REMARK  142  A    between atoms: _346  and  _348
REMARK  143  A    between atoms: _348  and  _349
REMARK  144  A    between atoms: _348  and  _351
REMARK  145  A    between atoms: _351  and  _352
REMARK  146  A    between atoms: _355  and  _357
REMARK  147  A    between atoms: _357  and  _358
REMARK  148  A    between atoms: _357  and  _360
REMARK  149  A    between atoms: _360  and  _361
REMARK  150  A    between atoms: _364  and  _366
REMARK  151  A    between atoms: _366  and  _367
REMARK  152  A    between atoms: _366  and  _369
REMARK  153  A    between atoms: _369  and  _370
REMARK  154  A    between atoms: _373  and  _375
REMARK  155  A    between atoms: _375  and  _376
REMARK  156  A    between atoms: _375  and  _378
REMARK  157  A    between atoms: _381  and  _383
REMARK  158  A    between atoms: _383  and  _384
REMARK  159  A    between atoms: _383  and  _386
REMARK  160  A    between atoms: _386  and  _387
REMARK  161  A    between atoms: _390  and  _392
REMARK  162  A    between atoms: _392  and  _393
REMARK  163  A    between atoms: _392  and  _395
REMARK  164  A    between atoms: _395  and  _396
REMARK  165  A    between atoms: _396  and  _397
REMARK  166  A    between atoms: _397  and  _398
REMARK  167  A    between atoms: _398  and  _399
REMARK  168  A    between atoms: _403  and  _405
REMARK  169  A    between atoms: _405  and  _406
REMARK  170  A    between atoms: _405  and  _408
REMARK  171  A    between atoms: _408  and  _409
REMARK  172  A    between atoms: _409  and  _410
REMARK  173  A    between atoms: _412  and  _414
REMARK  174  A    between atoms: _414  and  _415
REMARK  175  A    between atoms: _414  and  _417
REMARK  176  A    between atoms: _417  and  _418
REMARK  177  A    between atoms: _421  and  _423
REMARK  178  A    between atoms: _423  and  _424
REMARK  179  A    between atoms: _426  and  _428
REMARK  180  A    between atoms: _428  and  _429
REMARK  181  A    between atoms: _431  and  _433
REMARK  182  A    between atoms: _433  and  _434
REMARK  183  A    between atoms: _433  and  _436
REMARK  184  A    between atoms: _436  and  _437
REMARK  185  A    between atoms: _440  and  _442
REMARK  186  A    between atoms: _442  and  _443
REMARK  187  A    between atoms: _445  and  _447
REMARK  188  A    between atoms: _447  and  _448
REMARK  189  A    between atoms: _450  and  _452
REMARK  190  A    between atoms: _452  and  _453
REMARK  191  A    between atoms: _452  and  _455
REMARK  192  A    between atoms: _455  and  _456
REMARK  193  A    between atoms: _462  and  _464
REMARK  194  A    between atoms: _464  and  _465
REMARK  195  A    between atoms: _464  and  _467
REMARK  196  A    between atoms: _467  and  _468
REMARK  197  A    between atoms: _471  and  _473
REMARK  198  A    between atoms: _473  and  _474
REMARK  199  A    between atoms: _473  and  _476
REMARK  200  A    between atoms: _479  and  _481
REMARK  201  A    between atoms: _481  and  _482
REMARK  202  A    between atoms: _481  and  _484
REMARK  203  A    between atoms: _484  and  _485
REMARK  204  A    between atoms: _488  and  _490
REMARK  205  A    between atoms: _490  and  _491
REMARK  206  A    between atoms: _490  and  _493
REMARK  207  A    between atoms: _493  and  _494
REMARK  208  A    between atoms: _498  and  _499
REMARK  209  A    between atoms: _504  and  _506
REMARK  210  A    between atoms: _506  and  _507
REMARK  211  A    between atoms: _506  and  _509
REMARK  212  A    between atoms: _512  and  _514
REMARK  213  A    between atoms: _514  and  _515
REMARK  214  A    between atoms: _514  and  _517
REMARK  215  A    between atoms: _517  and  _518
REMARK  216  A    between atoms: _523  and  _525
REMARK  217  A    between atoms: _525  and  _526
REMARK  218  A    between atoms: _525  and  _528
REMARK  219  A    between atoms: _528  and  _529
REMARK  220  A    between atoms: _532  and  _534
REMARK  221  A    between atoms: _534  and  _535
REMARK  222  A    between atoms: _534  and  _537
REMARK  223  A    between atoms: _537  and  _538
REMARK  224  A    between atoms: _541  and  _543
REMARK  225  A    between atoms: _543  and  _544
REMARK  226  A    between atoms: _546  and  _548
REMARK  227  A    between atoms: _548  and  _549
REMARK  228  A    between atoms: _548  and  _551
REMARK  229  A    between atoms: _551  and  _552
REMARK  230  A    between atoms: _552  and  _553
REMARK  231  A    between atoms: _553  and  _554
REMARK  232  A    between atoms: _563  and  _565
REMARK  233  A    between atoms: _565  and  _566
REMARK  234  A    between atoms: _565  and  _568
REMARK  235  A    between atoms: _568  and  _569
REMARK                            x       y       z     vdW  Elec       q    Type
REMARK                         _______ _______ _______ _____ _____    ______ ____
ROOT
ATOM      1  NE  ARG A   1      29.423  22.733   0.804  0.00  0.00    -0.261 N 
ATOM      2  HE  ARG A   1      30.040  22.563   1.624  0.00  0.00    +0.259 HD
ATOM      3  CZ  ARG A   1      28.376  23.551   0.944  0.00  0.00    +0.342 C 
ATOM      4  NH2 ARG A   1      28.149  24.137   2.116  0.00  0.00    -0.292 N 
ATOM      5 HH21 ARG A   1      28.785  23.958   2.919  0.00  0.00    +0.255 HD
ATOM      6 HH22 ARG A   1      27.335  24.775   2.230  0.00  0.00    +0.255 HD
ATOM      7  NH1 ARG A   1      27.561  23.777  -0.071  0.00  0.00    -0.292 N 
ATOM      8 HH11 ARG A   1      26.748  24.415   0.047  0.00  0.00    +0.255 HD
ATOM      9 HH12 ARG A   1      27.732  23.317  -0.988  0.00  0.00    +0.255 HD
ENDROOT
BRANCH   1  10
ATOM     10  CD  ARG A   1      29.738  22.056  -0.485  0.00  0.00    +0.200 C 
BRANCH  10  12
ATOM     11  CB  ARG A   1      31.726  20.864  -1.568  0.00  0.00    -0.003 C 
ATOM     12  CG  ARG A   1      31.135  21.450  -0.337  0.00  0.00    +0.014 C 
BRANCH  11  13
ATOM     13  CA  ARG A   1      32.879  19.886  -1.351  0.00  0.00    +0.155 C 
BRANCH  13  14
ATOM     14  N   ARG A   1      34.131  20.641  -1.206  0.00  0.00    -0.235 NA
ATOM     15  H   ARG A   1      34.113  21.681  -1.220  0.00  0.00    +0.142 HD
ENDBRANCH  13  14
BRANCH  13  16
ATOM     16  C   ARG A   1      32.957  18.971  -2.542  0.00  0.00    +0.229 C 
ATOM     17  O   ARG A   1      33.435  19.387  -3.605  0.00  0.00    -0.286 OA
ENDBRANCH  13  16
ENDBRANCH  11  13
ENDBRANCH  10  12
ENDBRANCH   1  10
TORSDOF 5
REMARK  Name = ../refined-set-2016/1sdt/1sdt_pocket.pdb
REMARK  235 active torsions:
REMARK  status: ('A' for Active; 'I' for Inactive)
REMARK    1  A    between atoms: _1  and  _3
REMARK    2  A    between atoms: _3  and  _4
REMARK    3  A    between atoms: _3  and  _6
REMARK    4  A    between atoms: _6  and  _7
REMARK    5  A    between atoms: _7  and  _8
REMARK    6  A    between atoms: _8  and  _9
REMARK    7  A    between atoms: _18  and  _20
REMARK    8  A    between atoms: _20  and  _21
REMARK    9  A    between atoms: _20  and  _23
REMARK   10  A    between atoms: _23  and  _24
REMARK   11  A    between atoms: _27  and  _29
REMARK   12  A    between atoms: _29  and  _30
REMARK   13  A    between atoms: _29  and  _32
REMARK   14  A    between atoms: _32  and  _33
REMARK   15  A    between atoms: _36  and  _38
REMARK   16  A    between atoms: _38  and  _39
REMARK   17  A    between atoms: _38  and  _41
REMARK   18  A    between atoms: _41  and  _42
REMARK   19  A    between atoms: _45  and  _47
REMARK   20  A    between atoms: _47  and  _48
REMARK   21  A    between atoms: _47  and  _50
REMARK   22  A    between atoms: _50  and  _51
REMARK   23  A    between atoms: _54  and  _56
REMARK   24  A    between atoms: _56  and  _57
REMARK   25  A    between atoms: _56  and  _59
REMARK   26  A    between atoms: _59  and  _60
REMARK   27  A    between atoms: _63  and  _65
REMARK   28  A    between atoms: _65  and  _66
REMARK   29  A    between atoms: _68  and  _70
REMARK   30  A    between atoms: _70  and  _71
REMARK   31  A    between atoms: _74  and  _76
REMARK   32  A    between atoms: _76  and  _77
REMARK   33  A    between atoms: _76  and  _79
REMARK   34  A    between atoms: _79  and  _80
REMARK   35  A    between atoms: _83  and  _85
REMARK   36  A    between atoms: _85  and  _86
REMARK   37  A    between atoms: _85  and  _88
REMARK   38  A    between atoms: _88  and  _89
REMARK   39  A    between atoms: _92  and  _94
REMARK   40  A    between atoms: _94  and  _95
REMARK   41  A    between atoms: _94  and  _97
REMARK   42  A    between atoms: _97  and  _98
REMARK   43  A    between atoms: _101  and  _103
REMARK   44  A    between atoms: _103  and  _104
REMARK   45  A    between atoms: _103  and  _106
REMARK   46  A    between atoms: _109  and  _111
REMARK   47  A    between atoms: _111  and  _112
REMARK   48  A    between atoms: _111  and  _114
REMARK   49  A    between atoms: _114  and  _115
REMARK   50  A    between atoms: _115  and  _116
REMARK   51  A    between atoms: _116  and  _117
REMARK   52  A    between atoms: _117  and  _118
REMARK   53  A    between atoms: _122  and  _124
REMARK   54  A    between atoms: _124  and  _125
REMARK   55  A    between atoms: _124  and  _127
REMARK   56  A    between atoms: _127  and  _128
REMARK   57  A    between atoms: _128  and  _129
REMARK   58  A    between atoms: _131  and  _133
REMARK   59  A    between atoms: _133  and  _134
REMARK   60  A    between atoms: _133  and  _136
REMARK   61  A    between atoms: _136  and  _137
REMARK   62  A    between atoms: _140  and  _142
REMARK   63  A    between atoms: _142  and  _143
REMARK   64  A    between atoms: _145  and  _147
REMARK   65  A    between atoms: _147  and  _148
REMARK   66  A    between atoms: _150  and  _152
REMARK   67  A    between atoms: _152  and  _153
REMARK   68  A    between atoms: _152  and  _155
REMARK   69  A    between atoms: _155  and  _156
REMARK   70  A    between atoms: _159  and  _161
REMARK   71  A    between atoms: _161  and  _162
REMARK   72  A    between atoms: _164  and  _166
REMARK   73  A    between atoms: _166  and  _167
REMARK   74  A    between atoms: _169  and  _171
REMARK   75  A    between atoms: _171  and  _172
REMARK   76  A    between atoms: _171  and  _174
REMARK   77  A    between atoms: _174  and  _175
REMARK   78  A    between atoms: _181  and  _183
REMARK   79  A    between atoms: _183  and  _184
REMARK   80  A    between atoms: _183  and  _186
REMARK   81  A    between atoms: _186  and  _187
REMARK   82  A    between atoms: _190  and  _192
REMARK   83  A    between atoms: _192  and  _193
REMARK   84  A    between atoms: _192  and  _195
REMARK   85  A    between atoms: _198  and  _200
REMARK   86  A    between atoms: _200  and  _201
REMARK   87  A    between atoms: _200  and  _203
REMARK   88  A    between atoms: _203  and  _204
REMARK   89  A    between atoms: _207  and  _209
REMARK   90  A    between atoms: _209  and  _210
REMARK   91  A    between atoms: _209  and  _212
REMARK   92  A    between atoms: _212  and  _213
REMARK   93  A    between atoms: _217  and  _218
REMARK   94  A    between atoms: _223  and  _225
REMARK   95  A    between atoms: _225  and  _226
REMARK   96  A    between atoms: _225  and  _228
REMARK   97  A    between atoms: _231  and  _233
REMARK   98  A    between atoms: _233  and  _234
REMARK   99  A    between atoms: _233  and  _236
REMARK  100  A    between atoms: _236  and  _237
REMARK  101  A    between atoms: _242  and  _244
REMARK  102  A    between atoms: _244  and  _245
REMARK  103  A    between atoms: _244  and  _247
REMARK  104  A    between atoms: _247  and  _248
REMARK  105  A    between atoms: _251  and  _253
REMARK  106  A    between atoms: _253  and  _254
REMARK  107  A    between atoms: _253  and  _256
REMARK  108  A    between atoms: _256  and  _257
REMARK  109  A    between atoms: _260  and  _262
REMARK  110  A    between atoms: _262  and  _263
REMARK  111  A    between atoms: _265  and  _267
REMARK  112  A    between atoms: _267  and  _268
REMARK  113  A    between atoms: _267  and  _270
REMARK  114  A    between atoms: _270  and  _271
REMARK  115  A    between atoms: _271  and  _272
REMARK  116  A    between atoms: _272  and  _273
REMARK  117  A    between atoms: _282  and  _284
REMARK  118  A    between atoms: _284  and  _285
REMARK  119  A    between atoms: _284  and  _287
REMARK  120  A    between atoms: _288  and  _289
REMARK  121  A    between atoms: _289  and  _290
REMARK  122  A    between atoms: _299  and  _301
REMARK  123  A    between atoms: _301  and  _302
REMARK  124  A    between atoms: _301  and  _304
REMARK  125  A    between atoms: _304  and  _305
REMARK  126  A    between atoms: _308  and  _310
REMARK  127  A    between atoms: _310  and  _311
REMARK  128  A    between atoms: _310  and  _313
REMARK  129  A    between atoms: _313  and  _314
REMARK  130  A    between atoms: _317  and  _319
REMARK  131  A    between atoms: _319  and  _320
REMARK  132  A    between atoms: _319  and  _322
REMARK  133  A    between atoms: _322  and  _323
REMARK  134  A    between atoms: _326  and  _328
REMARK  135  A    between atoms: _328  and  _329
REMARK  136  A    between atoms: _328  and  _331
REMARK  137  A    between atoms: _331  and  _332
REMARK  138  A    between atoms: _335  and  _337
REMARK  139  A    between atoms: _337  and  _338
REMARK  140  A    between atoms: _340  and  _342
REMARK  141  A    between atoms: _342  and  _343
REMARK  142  A    between atoms: _346  and  _348
REMARK  143  A    between atoms: _348  and  _349
REMARK  144  A    between atoms: _348  and  _351
REMARK  145  A    between atoms: _351  and  _352
REMARK  146  A    between atoms: _355  and  _357
REMARK  147  A    between atoms: _357  and  _358
REMARK  148  A    between atoms: _357  and  _360
REMARK  149  A    between atoms: _360  and  _361
REMARK  150  A    between atoms: _364  and  _366
REMARK  151  A    between atoms: _366  and  _367
REMARK  152  A    between atoms: _366  and  _369
REMARK  153  A    between atoms: _369  and  _370
REMARK  154  A    between atoms: _373  and  _375
REMARK  155  A    between atoms: _375  and  _376
REMARK  156  A    between atoms: _375  and  _378
REMARK  157  A    between atoms: _381  and  _383
REMARK  158  A    between atoms: _383  and  _384
REMARK  159  A    between atoms: _383  and  _386
REMARK  160  A    between atoms: _386  and  _387
REMARK  161  A    between atoms: _390  and  _392
REMARK  162  A    between atoms: _392  and  _393
REMARK  163  A    between atoms: _392  and  _395
REMARK  164  A    between atoms: _395  and  _396
REMARK  165  A    between atoms: _396  and  _397
REMARK  166  A    between atoms: _397  and  _398
REMARK  167  A    between atoms: _398  and  _399
REMARK  168  A    between atoms: _403  and  _405
REMARK  169  A    between atoms: _405  and  _406
REMARK  170  A    between atoms: _405  and  _408
REMARK  171  A    between atoms: _408  and  _409
REMARK  172  A    between atoms: _409  and  _410
REMARK  173  A    between atoms: _412  and  _414
REMARK  174  A    between atoms: _414  and  _415
REMARK  175  A    between atoms: _414  and  _417
REMARK  176  A    between atoms: _417  and  _418
REMARK  177  A    between atoms: _421  and  _423
REMARK  178  A    between atoms: _423  and  _424
REMARK  179  A    between atoms: _426  and  _428
REMARK  180  A    between atoms: _428  and  _429
REMARK  181  A    between atoms: _431  and  _433
REMARK  182  A    between atoms: _433  and  _434
REMARK  183  A    between atoms: _433  and  _436
REMARK  184  A    between atoms: _436  and  _437
REMARK  185  A    between atoms: _440  and  _442
REMARK  186  A    between atoms: _442  and  _443
REMARK  187  A    between atoms: _445  and  _447
REMARK  188  A    between atoms: _447  and  _448
REMARK  189  A    between atoms: _450  and  _452
REMARK  190  A    between atoms: _452  and  _453
REMARK  191  A    between atoms: _452  and  _455
REMARK  192  A    between atoms: _455  and  _456
REMARK  193  A    between atoms: _462  and  _464
REMARK  194  A    between atoms: _464  and  _465
REMARK  195  A    between atoms: _464  and  _467
REMARK  196  A    between atoms: _467  and  _468
REMARK  197  A    between atoms: _471  and  _473
REMARK  198  A    between atoms: _473  and  _474
REMARK  199  A    between atoms: _473  and  _476
REMARK  200  A    between atoms: _479  and  _481
REMARK  201  A    between atoms: _481  and  _482
REMARK  202  A    between atoms: _481  and  _484
REMARK  203  A    between atoms: _484  and  _485
REMARK  204  A    between atoms: _488  and  _490
REMARK  205  A    between atoms: _490  and  _491
REMARK  206  A    between atoms: _490  and  _493
REMARK  207  A    between atoms: _493  and  _494
REMARK  208  A    between atoms: _498  and  _499
REMARK  209  A    between atoms: _504  and  _506
REMARK  210  A    between atoms: _506  and  _507
REMARK  211  A    between atoms: _506  and  _509
REMARK  212  A    between atoms: _512  and  _514
REMARK  213  A    between atoms: _514  and  _515
REMARK  214  A    between atoms: _514  and  _517
REMARK  215  A    between atoms: _517  and  _518
REMARK  216  A    between atoms: _523  and  _525
REMARK  217  A    between atoms: _525  and  _526
REMARK  218  A    between atoms: _525  and  _528
REMARK  219  A    between atoms: _528  and  _529
REMARK  220  A    between atoms: _532  and  _534
REMARK  221  A    between atoms: _534  and  _535
REMARK  222  A    between atoms: _534  and  _537
REMARK  223  A    between atoms: _537  and  _538
REMARK  224  A    between atoms: _541  and  _543
REMARK  225  A    between atoms: _543  and  _544
REMARK  226  A    between atoms: _546  and  _548
REMARK  227  A    between atoms: _548  and  _549
REMARK  228  A    between atoms: _548  and  _551
REMARK  229  A    between atoms: _551  and  _552
REMARK  230  A    between atoms: _552  and  _553
REMARK  231  A    between atoms: _553  and  _554
REMARK  232  A    between atoms: _563  and  _565
REMARK  233  A    between atoms: _565  and  _566
REMARK  234  A    between atoms: _565  and  _568
REMARK  235  A    between atoms: _568  and  _569
REMARK                            x       y       z     vdW  Elec       q    Type
REMARK                         _______ _______ _______ _____ _____    ______ ____
ROOT
ATOM      1  C   ALA A   6      21.620   9.873   2.229  0.00  0.00    +0.241 C 
ATOM      2  N   ASP A   7      20.479   9.450   2.801  0.00  0.00    -0.297 N 
ATOM      3  H   ASP A   7      20.013  10.037   3.522  0.00  0.00    +0.150 HD
ATOM      4  O   ALA A   6      22.221   9.184   1.391  0.00  0.00    -0.273 OA
ENDROOT
BRANCH   1   5
ATOM      5  CA  ALA A   6      22.137  11.239   2.612  0.00  0.00    +0.149 C 
ATOM      6  CB  ALA A   6      22.098  12.197   1.401  0.00  0.00    +0.031 C 
BRANCH   5   9
ATOM      7  C   GLY A   5      23.822  11.119   4.394  0.00  0.00    +0.243 C 
ATOM      8  O   GLY A   5      22.965  11.207   5.282  0.00  0.00    -0.273 OA
ATOM      9  N   ALA A   6      23.492  11.142   3.110  0.00  0.00    -0.297 N 
ATOM     10  H   ALA A   6      24.261  11.086   2.412  0.00  0.00    +0.150 HD
BRANCH   7  11
ATOM     11  CA  GLY A   5      25.258  11.010   4.784  0.00  0.00    +0.176 C 
BRANCH  11  13
ATOM     12  C   THR A   4      26.456   9.655   3.132  0.00  0.00    +0.243 C 
ATOM     13  N   GLY A   5      26.184  10.844   3.662  0.00  0.00    -0.295 N 
ATOM     14  H   GLY A   5      26.646  11.687   3.265  0.00  0.00    +0.150 HD
ATOM     15  O   THR A   4      26.005   8.606   3.596  0.00  0.00    -0.273 OA
BRANCH  12  16
ATOM     16  CA  THR A   4      27.361   9.616   1.926  0.00  0.00    +0.176 C 
BRANCH  16  18
ATOM     17  C   ASP A   3      26.418  11.447   0.615  0.00  0.00    +0.241 C 
ATOM     18  N   THR A   4      27.453  10.890   1.233  0.00  0.00    -0.295 N 
ATOM     19  H   THR A   4      28.367  11.386   1.221  0.00  0.00    +0.150 HD
ATOM     20  O   ASP A   3      25.326  10.919   0.611  0.00  0.00    -0.273 OA
BRANCH  17  21
ATOM     21  CA  ASP A   3      26.691  12.793  -0.027  0.00  0.00    +0.160 C 
BRANCH  21  24
ATOM     22  C   LEU A   2      28.027  13.257  -1.998  0.00  0.00    +0.241 C 
ATOM     23  O   LEU A   2      29.003  13.659  -1.365  0.00  0.00    -0.273 OA
ATOM     24  N   ASP A   3      26.957  12.708  -1.462  0.00  0.00    -0.297 N 
ATOM     25  H   ASP A   3      26.285  12.202  -2.074  0.00  0.00    +0.150 HD
BRANCH  22  26
ATOM     26  CA  LEU A   2      28.025  13.414  -3.507  0.00  0.00    +0.149 C 
BRANCH  26  29
ATOM     27  C   LEU A   1      26.822  15.508  -3.769  0.00  0.00    +0.238 C 
ATOM     28  O   LEU A   1      25.746  14.975  -3.536  0.00  0.00    -0.274 OA
ATOM     29  N   LEU A   2      27.982  14.836  -3.825  0.00  0.00    -0.297 N 
ATOM     30  H   LEU A   2      28.855  15.332  -4.097  0.00  0.00    +0.150 HD
BRANCH  27  31
ATOM     31  CA  LEU A   1      26.863  17.015  -4.014  0.00  0.00    +0.145 C 
BRANCH  31  32
ATOM     32  N   LEU A   1      25.994  17.426  -5.069  0.00  0.00    -0.238 NA
ATOM     33  H   LEU A   1      24.996  17.591  -4.827  0.00  0.00    +0.142 HD
ENDBRANCH  31  32
BRANCH  31  34
ATOM     34  CB  LEU A   1      26.392  17.737  -2.743  0.00  0.00    +0.026 C 
BRANCH  34  35
ATOM     35  CG  LEU A   1      27.175  17.566  -1.466  0.00  0.00    +0.002 C 
ATOM     36  CD2 LEU A   1      26.442  18.263  -0.317  0.00  0.00    +0.000 C 
ATOM     37  CD1 LEU A   1      28.575  18.155  -1.606  0.00  0.00    +0.000 C 
ENDBRANCH  34  35
ENDBRANCH  31  34
ENDBRANCH  27  31
ENDBRANCH  26  29
BRANCH  26  38
ATOM     38  CB  LEU A   2      29.250  12.743  -4.118  0.00  0.00    +0.029 C 
BRANCH  38  39
ATOM     39  CG  LEU A   2      29.356  12.859  -5.644  0.00  0.00    +0.002 C 
ATOM     40  CD2 LEU A   2      30.622  12.137  -6.093  0.00  0.00    +0.000 C 
ATOM     41  CD1 LEU A   2      28.101  12.402  -6.349  0.00  0.00    +0.000 C 
ENDBRANCH  38  39
ENDBRANCH  26  38
ENDBRANCH  22  26
ENDBRANCH  21  24
BRANCH  21  42
ATOM     42  CB  ASP A   3      25.482  13.694   0.206  0.00  0.00    +0.143 C 
BRANCH  42  43
ATOM     43  CG  ASP A   3      25.320  14.023   1.675  0.00  0.00    +0.367 C 
ATOM     44  OD2 ASP A   3      26.092  13.481   2.483  0.00  0.00    -0.246 OA
ATOM     45  OD1 ASP A   3      24.427  14.841   1.956  0.00  0.00    -0.246 OA
ENDBRANCH  42  43
ENDBRANCH  21  42
ENDBRANCH  17  21
ENDBRANCH  16  18
BRANCH  16  46
ATOM     46  CB  THR A   4      28.735   9.042   2.323  0.00  0.00    +0.137 C 
ATOM     47  CG2 THR A   4      29.595   8.820   1.074  0.00  0.00    +0.034 C 
BRANCH  46  48
ATOM     48  OG1 THR A   4      29.392   9.967   3.190  0.00  0.00    -0.382 OA
ATOM     49  HG1 THR A   4      28.841  10.106   4.001  0.00  0.00    +0.210 HD
ENDBRANCH  46  48
ENDBRANCH  16  46
ENDBRANCH  12  16
ENDBRANCH  11  13
ENDBRANCH   7  11
ENDBRANCH   5   9
ENDBRANCH   1   5
BRANCH   2  50
ATOM     50  CA  ASP A   7      19.901   8.192   2.420  0.00  0.00    +0.160 C 
BRANCH  50  51
ATOM     51  C   ASP A   7      19.414   8.190   0.983  0.00  0.00    +0.241 C 
ATOM     52  N   ASP A   8      18.882   9.297   0.528  0.00  0.00    -0.297 N 
ATOM     53  H   ASP A   8      18.968  10.140   1.131  0.00  0.00    +0.150 HD
ATOM     54  O   ASP A   7      19.499   7.151   0.306  0.00  0.00    -0.273 OA
BRANCH  52  55
ATOM     55  CA  ASP A   8      18.182   9.466  -0.738  0.00  0.00    +0.160 C 
BRANCH  55  56
ATOM     56  C   ASP A   8      18.834  10.579  -1.559  0.00  0.00    +0.241 C 
ATOM     57  O   ASP A   8      19.654  11.348  -1.083  0.00  0.00    -0.273 OA
ATOM     58  N   THR A   9      18.391  10.689  -2.788  0.00  0.00    -0.295 N 
ATOM     59  H   THR A   9      17.710   9.974  -3.114  0.00  0.00    +0.150 HD
BRANCH  58  60
ATOM     60  CA  THR A   9      18.774  11.735  -3.741  0.00  0.00    +0.176 C 
BRANCH  60  61
ATOM     61  C   THR A   9      17.694  12.756  -3.879  0.00  0.00    +0.243 C 
ATOM     62  N   VAL A  10      18.048  14.034  -3.683  0.00  0.00    -0.297 N 
ATOM     63  H   VAL A  10      19.036  14.280  -3.474  0.00  0.00    +0.150 HD
ATOM     64  O   THR A   9      16.537  12.396  -4.140  0.00  0.00    -0.273 OA
BRANCH  62  65
ATOM     65  CA  VAL A  10      17.041  15.063  -3.766  0.00  0.00    +0.149 C 
BRANCH  65  66
ATOM     66  C   VAL A  10      17.611  16.248  -4.564  0.00  0.00    +0.241 C 
ATOM     67  O   VAL A  10      18.753  16.700  -4.370  0.00  0.00    -0.273 OA
ATOM     68  N   ILE A  11      16.778  16.724  -5.491  0.00  0.00    -0.298 N 
ATOM     69  H   ILE A  11      15.834  16.304  -5.606  0.00  0.00    +0.150 HD
BRANCH  68  70
ATOM     70  CA  ILE A  11      17.188  17.824  -6.336  0.00  0.00    +0.137 C 
BRANCH  70  71
ATOM     71  CB  ILE A  11      17.433  17.317  -7.765  0.00  0.00    +0.026 C 
ATOM     72  CG2 ILE A  11      18.568  16.309  -7.719  0.00  0.00    +0.002 C 
BRANCH  71  73
ATOM     73  CG1 ILE A  11      16.178  16.761  -8.406  0.00  0.00    +0.002 C 
ATOM     74  CD1 ILE A  11      16.314  16.187  -9.787  0.00  0.00    +0.000 C 
ENDBRANCH  71  73
ENDBRANCH  70  71
BRANCH  70  75
ATOM     75  C   ILE A  11      16.133  18.921  -6.276  0.00  0.00    +0.227 C 
ATOM     76  O   ILE A  11      14.963  18.742  -5.922  0.00  0.00    -0.286 OA
ENDBRANCH  70  75
ENDBRANCH  68  70
ENDBRANCH  65  66
BRANCH  65  77
ATOM     77  CB  VAL A  10      16.485  15.455  -2.368  0.00  0.00    +0.027 C 
ATOM     78  CG2 VAL A  10      17.581  15.969  -1.478  0.00  0.00    +0.002 C 
ATOM     79  CG1 VAL A  10      15.366  16.480  -2.491  0.00  0.00    +0.002 C 
ENDBRANCH  65  77
ENDBRANCH  62  65
ENDBRANCH  60  61
BRANCH  60  80
ATOM     80  CB  THR A   9      19.054  11.025  -5.078  0.00  0.00    +0.137 C 
ATOM     81  CG2 THR A   9      19.303  12.030  -6.189  0.00  0.00    +0.034 C 
BRANCH  80  82
ATOM     82  OG1 THR A   9      20.222  10.196  -4.900  0.00  0.00    -0.382 OA
ATOM     83  HG1 THR A   9      20.048   9.532  -4.187  0.00  0.00    +0.210 HD
ENDBRANCH  80  82
ENDBRANCH  60  80
ENDBRANCH  58  60
ENDBRANCH  55  56
BRANCH  55  84
ATOM     84  CB  ASP A   8      16.733   9.809  -0.452  0.00  0.00    +0.143 C 
BRANCH  84  85
ATOM     85  CG  ASP A   8      16.024   8.917   0.542  0.00  0.00    +0.367 C 
ATOM     86  OD2 ASP A   8      15.489   9.418   1.569  0.00  0.00    -0.246 OA
ATOM     87  OD1 ASP A   8      16.032   7.695   0.281  0.00  0.00    -0.246 OA
ENDBRANCH  84  85
ENDBRANCH  55  84
ENDBRANCH  52  55
ENDBRANCH  50  51
BRANCH  50  88
ATOM     88  CB  ASP A   7      18.714   7.848   3.352  0.00  0.00    +0.143 C 
BRANCH  88  89
ATOM     89  CG  ASP A   7      19.095   7.638   4.790  0.00  0.00    +0.367 C 
ATOM     90  OD2 ASP A   7      18.182   7.867   5.639  0.00  0.00    -0.246 OA
ATOM     91  OD1 ASP A   7      20.261   7.276   5.104  0.00  0.00    -0.246 OA
ENDBRANCH  88  89
ENDBRANCH  50  88
ENDBRANCH   2  50
TORSDOF 39
REMARK  Name = ../refined-set-2016/1sdt/1sdt_pocket.pdb
REMARK  235 active torsions:
REMARK  status: ('A' for Active; 'I' for Inactive)
REMARK    1  A    between atoms: _1  and  _3
REMARK    2  A    between atoms: _3  and  _4
REMARK    3  A    between atoms: _3  and  _6
REMARK    4  A    between atoms: _6  and  _7
REMARK    5  A    between atoms: _7  and  _8
REMARK    6  A    between atoms: _8  and  _9
REMARK    7  A    between atoms: _18  and  _20
REMARK    8  A    between atoms: _20  and  _21
REMARK    9  A    between atoms: _20  and  _23
REMARK   10  A    between atoms: _23  and  _24
REMARK   11  A    between atoms: _27  and  _29
REMARK   12  A    between atoms: _29  and  _30
REMARK   13  A    between atoms: _29  and  _32
REMARK   14  A    between atoms: _32  and  _33
REMARK   15  A    between atoms: _36  and  _38
REMARK   16  A    between atoms: _38  and  _39
REMARK   17  A    between atoms: _38  and  _41
REMARK   18  A    between atoms: _41  and  _42
REMARK   19  A    between atoms: _45  and  _47
REMARK   20  A    between atoms: _47  and  _48
REMARK   21  A    between atoms: _47  and  _50
REMARK   22  A    between atoms: _50  and  _51
REMARK   23  A    between atoms: _54  and  _56
REMARK   24  A    between atoms: _56  and  _57
REMARK   25  A    between atoms: _56  and  _59
REMARK   26  A    between atoms: _59  and  _60
REMARK   27  A    between atoms: _63  and  _65
REMARK   28  A    between atoms: _65  and  _66
REMARK   29  A    between atoms: _68  and  _70
REMARK   30  A    between atoms: _70  and  _71
REMARK   31  A    between atoms: _74  and  _76
REMARK   32  A    between atoms: _76  and  _77
REMARK   33  A    between atoms: _76  and  _79
REMARK   34  A    between atoms: _79  and  _80
REMARK   35  A    between atoms: _83  and  _85
REMARK   36  A    between atoms: _85  and  _86
REMARK   37  A    between atoms: _85  and  _88
REMARK   38  A    between atoms: _88  and  _89
REMARK   39  A    between atoms: _92  and  _94
REMARK   40  A    between atoms: _94  and  _95
REMARK   41  A    between atoms: _94  and  _97
REMARK   42  A    between atoms: _97  and  _98
REMARK   43  A    between atoms: _101  and  _103
REMARK   44  A    between atoms: _103  and  _104
REMARK   45  A    between atoms: _103  and  _106
REMARK   46  A    between atoms: _109  and  _111
REMARK   47  A    between atoms: _111  and  _112
REMARK   48  A    between atoms: _111  and  _114
REMARK   49  A    between atoms: _114  and  _115
REMARK   50  A    between atoms: _115  and  _116
REMARK   51  A    between atoms: _116  and  _117
REMARK   52  A    between atoms: _117  and  _118
REMARK   53  A    between atoms: _122  and  _124
REMARK   54  A    between atoms: _124  and  _125
REMARK   55  A    between atoms: _124  and  _127
REMARK   56  A    between atoms: _127  and  _128
REMARK   57  A    between atoms: _128  and  _129
REMARK   58  A    between atoms: _131  and  _133
REMARK   59  A    between atoms: _133  and  _134
REMARK   60  A    between atoms: _133  and  _136
REMARK   61  A    between atoms: _136  and  _137
REMARK   62  A    between atoms: _140  and  _142
REMARK   63  A    between atoms: _142  and  _143
REMARK   64  A    between atoms: _145  and  _147
REMARK   65  A    between atoms: _147  and  _148
REMARK   66  A    between atoms: _150  and  _152
REMARK   67  A    between atoms: _152  and  _153
REMARK   68  A    between atoms: _152  and  _155
REMARK   69  A    between atoms: _155  and  _156
REMARK   70  A    between atoms: _159  and  _161
REMARK   71  A    between atoms: _161  and  _162
REMARK   72  A    between atoms: _164  and  _166
REMARK   73  A    between atoms: _166  and  _167
REMARK   74  A    between atoms: _169  and  _171
REMARK   75  A    between atoms: _171  and  _172
REMARK   76  A    between atoms: _171  and  _174
REMARK   77  A    between atoms: _174  and  _175
REMARK   78  A    between atoms: _181  and  _183
REMARK   79  A    between atoms: _183  and  _184
REMARK   80  A    between atoms: _183  and  _186
REMARK   81  A    between atoms: _186  and  _187
REMARK   82  A    between atoms: _190  and  _192
REMARK   83  A    between atoms: _192  and  _193
REMARK   84  A    between atoms: _192  and  _195
REMARK   85  A    between atoms: _198  and  _200
REMARK   86  A    between atoms: _200  and  _201
REMARK   87  A    between atoms: _200  and  _203
REMARK   88  A    between atoms: _203  and  _204
REMARK   89  A    between atoms: _207  and  _209
REMARK   90  A    between atoms: _209  and  _210
REMARK   91  A    between atoms: _209  and  _212
REMARK   92  A    between atoms: _212  and  _213
REMARK   93  A    between atoms: _217  and  _218
REMARK   94  A    between atoms: _223  and  _225
REMARK   95  A    between atoms: _225  and  _226
REMARK   96  A    between atoms: _225  and  _228
REMARK   97  A    between atoms: _231  and  _233
REMARK   98  A    between atoms: _233  and  _234
REMARK   99  A    between atoms: _233  and  _236
REMARK  100  A    between atoms: _236  and  _237
REMARK  101  A    between atoms: _242  and  _244
REMARK  102  A    between atoms: _244  and  _245
REMARK  103  A    between atoms: _244  and  _247
REMARK  104  A    between atoms: _247  and  _248
REMARK  105  A    between atoms: _251  and  _253
REMARK  106  A    between atoms: _253  and  _254
REMARK  107  A    between atoms: _253  and  _256
REMARK  108  A    between atoms: _256  and  _257
REMARK  109  A    between atoms: _260  and  _262
REMARK  110  A    between atoms: _262  and  _263
REMARK  111  A    between atoms: _265  and  _267
REMARK  112  A    between atoms: _267  and  _268
REMARK  113  A    between atoms: _267  and  _270
REMARK  114  A    between atoms: _270  and  _271
REMARK  115  A    between atoms: _271  and  _272
REMARK  116  A    between atoms: _272  and  _273
REMARK  117  A    between atoms: _282  and  _284
REMARK  118  A    between atoms: _284  and  _285
REMARK  119  A    between atoms: _284  and  _287
REMARK  120  A    between atoms: _288  and  _289
REMARK  121  A    between atoms: _289  and  _290
REMARK  122  A    between atoms: _299  and  _301
REMARK  123  A    between atoms: _301  and  _302
REMARK  124  A    between atoms: _301  and  _304
REMARK  125  A    between atoms: _304  and  _305
REMARK  126  A    between atoms: _308  and  _310
REMARK  127  A    between atoms: _310  and  _311
REMARK  128  A    between atoms: _310  and  _313
REMARK  129  A    between atoms: _313  and  _314
REMARK  130  A    between atoms: _317  and  _319
REMARK  131  A    between atoms: _319  and  _320
REMARK  132  A    between atoms: _319  and  _322
REMARK  133  A    between atoms: _322  and  _323
REMARK  134  A    between atoms: _326  and  _328
REMARK  135  A    between atoms: _328  and  _329
REMARK  136  A    between atoms: _328  and  _331
REMARK  137  A    between atoms: _331  and  _332
REMARK  138  A    between atoms: _335  and  _337
REMARK  139  A    between atoms: _337  and  _338
REMARK  140  A    between atoms: _340  and  _342
REMARK  141  A    between atoms: _342  and  _343
REMARK  142  A    between atoms: _346  and  _348
REMARK  143  A    between atoms: _348  and  _349
REMARK  144  A    between atoms: _348  and  _351
REMARK  145  A    between atoms: _351  and  _352
REMARK  146  A    between atoms: _355  and  _357
REMARK  147  A    between atoms: _357  and  _358
REMARK  148  A    between atoms: _357  and  _360
REMARK  149  A    between atoms: _360  and  _361
REMARK  150  A    between atoms: _364  and  _366
REMARK  151  A    between atoms: _366  and  _367
REMARK  152  A    between atoms: _366  and  _369
REMARK  153  A    between atoms: _369  and  _370
REMARK  154  A    between atoms: _373  and  _375
REMARK  155  A    between atoms: _375  and  _376
REMARK  156  A    between atoms: _375  and  _378
REMARK  157  A    between atoms: _381  and  _383
REMARK  158  A    between atoms: _383  and  _384
REMARK  159  A    between atoms: _383  and  _386
REMARK  160  A    between atoms: _386  and  _387
REMARK  161  A    between atoms: _390  and  _392
REMARK  162  A    between atoms: _392  and  _393
REMARK  163  A    between atoms: _392  and  _395
REMARK  164  A    between atoms: _395  and  _396
REMARK  165  A    between atoms: _396  and  _397
REMARK  166  A    between atoms: _397  and  _398
REMARK  167  A    between atoms: _398  and  _399
REMARK  168  A    between atoms: _403  and  _405
REMARK  169  A    between atoms: _405  and  _406
REMARK  170  A    between atoms: _405  and  _408
REMARK  171  A    between atoms: _408  and  _409
REMARK  172  A    between atoms: _409  and  _410
REMARK  173  A    between atoms: _412  and  _414
REMARK  174  A    between atoms: _414  and  _415
REMARK  175  A    between atoms: _414  and  _417
REMARK  176  A    between atoms: _417  and  _418
REMARK  177  A    between atoms: _421  and  _423
REMARK  178  A    between atoms: _423  and  _424
REMARK  179  A    between atoms: _426  and  _428
REMARK  180  A    between atoms: _428  and  _429
REMARK  181  A    between atoms: _431  and  _433
REMARK  182  A    between atoms: _433  and  _434
REMARK  183  A    between atoms: _433  and  _436
REMARK  184  A    between atoms: _436  and  _437
REMARK  185  A    between atoms: _440  and  _442
REMARK  186  A    between atoms: _442  and  _443
REMARK  187  A    between atoms: _445  and  _447
REMARK  188  A    between atoms: _447  and  _448
REMARK  189  A    between atoms: _450  and  _452
REMARK  190  A    between atoms: _452  and  _453
REMARK  191  A    between atoms: _452  and  _455
REMARK  192  A    between atoms: _455  and  _456
REMARK  193  A    between atoms: _462  and  _464
REMARK  194  A    between atoms: _464  and  _465
REMARK  195  A    between atoms: _464  and  _467
REMARK  196  A    between atoms: _467  and  _468
REMARK  197  A    between atoms: _471  and  _473
REMARK  198  A    between atoms: _473  and  _474
REMARK  199  A    between atoms: _473  and  _476
REMARK  200  A    between atoms: _479  and  _481
REMARK  201  A    between atoms: _481  and  _482
REMARK  202  A    between atoms: _481  and  _484
REMARK  203  A    between atoms: _484  and  _485
REMARK  204  A    between atoms: _488  and  _490
REMARK  205  A    between atoms: _490  and  _491
REMARK  206  A    between atoms: _490  and  _493
REMARK  207  A    between atoms: _493  and  _494
REMARK  208  A    between atoms: _498  and  _499
REMARK  209  A    between atoms: _504  and  _506
REMARK  210  A    between atoms: _506  and  _507
REMARK  211  A    between atoms: _506  and  _509
REMARK  212  A    between atoms: _512  and  _514
REMARK  213  A    between atoms: _514  and  _515
REMARK  214  A    between atoms: _514  and  _517
REMARK  215  A    between atoms: _517  and  _518
REMARK  216  A    between atoms: _523  and  _525
REMARK  217  A    between atoms: _525  and  _526
REMARK  218  A    between atoms: _525  and  _528
REMARK  219  A    between atoms: _528  and  _529
REMARK  220  A    between atoms: _532  and  _534
REMARK  221  A    between atoms: _534  and  _535
REMARK  222  A    between atoms: _534  and  _537
REMARK  223  A    between atoms: _537  and  _538
REMARK  224  A    between atoms: _541  and  _543
REMARK  225  A    between atoms: _543  and  _544
REMARK  226  A    between atoms: _546  and  _548
REMARK  227  A    between atoms: _548  and  _549
REMARK  228  A    between atoms: _548  and  _551
REMARK  229  A    between atoms: _551  and  _552
REMARK  230  A    between atoms: _552  and  _553
REMARK  231  A    between atoms: _553  and  _554
REMARK  232  A    between atoms: _563  and  _565
REMARK  233  A    between atoms: _565  and  _566
REMARK  234  A    between atoms: _565  and  _568
REMARK  235  A    between atoms: _568  and  _569
REMARK                            x       y       z     vdW  Elec       q    Type
REMARK                         _______ _______ _______ _____ _____    ______ ____
ROOT
ATOM      1  C   GLY A   5      18.227  17.085   9.503  0.00  0.00    +0.243 C 
ATOM      2  O   GLY A   5      17.407  17.220  10.374  0.00  0.00    -0.273 OA
ATOM      3  N   ILE A   6      19.379  17.781   9.506  0.00  0.00    -0.297 N 
ATOM      4  H   ILE A   6      20.116  17.583   8.799  0.00  0.00    +0.150 HD
ENDROOT
BRANCH   3   5
ATOM      5  CA  ILE A   6      19.581  18.814  10.510  0.00  0.00    +0.149 C 
BRANCH   5   6
ATOM      6  C   ILE A   6      18.529  19.887  10.289  0.00  0.00    +0.241 C 
ATOM      7  N   GLY A   7      17.913  20.358  11.366  0.00  0.00    -0.295 N 
ATOM      8  H   GLY A   7      18.143  19.981  12.308  0.00  0.00    +0.150 HD
ATOM      9  O   ILE A   6      18.275  20.290   9.147  0.00  0.00    -0.273 OA
BRANCH   7  10
ATOM     10  CA  GLY A   7      16.918  21.401  11.221  0.00  0.00    +0.176 C 
BRANCH  10  11
ATOM     11  C   GLY A   7      15.527  20.886  11.034  0.00  0.00    +0.243 C 
ATOM     12  O   GLY A   7      14.559  21.640  11.111  0.00  0.00    -0.273 OA
ATOM     13  N   GLY A   8      15.302  19.594  10.798  0.00  0.00    -0.295 N 
ATOM     14  H   GLY A   8      16.087  18.913  10.752  0.00  0.00    +0.150 HD
BRANCH  13  15
ATOM     15  CA  GLY A   8      13.905  19.158  10.604  0.00  0.00    +0.176 C 
BRANCH  15  16
ATOM     16  C   GLY A   8      13.698  18.516   9.237  0.00  0.00    +0.243 C 
ATOM     17  N   PHE A   9      12.471  18.441   8.810  0.00  0.00    -0.297 N 
ATOM     18  H   PHE A   9      11.746  18.905   9.393  0.00  0.00    +0.150 HD
ATOM     19  O   GLY A   8      14.610  18.044   8.601  0.00  0.00    -0.273 OA
BRANCH  17  20
ATOM     20  CA  PHE A   9      12.010  17.777   7.605  0.00  0.00    +0.153 C 
BRANCH  20  21
ATOM     21  C   PHE A   9      11.555  18.723   6.508  0.00  0.00    +0.241 C 
ATOM     22  O   PHE A   9      11.084  19.855   6.708  0.00  0.00    -0.273 OA
ATOM     23  N   ILE A  10      11.643  18.203   5.281  0.00  0.00    -0.298 N 
ATOM     24  H   ILE A  10      12.163  17.315   5.131  0.00  0.00    +0.150 HD
BRANCH  23  25
ATOM     25  CA  ILE A  10      11.014  18.875   4.150  0.00  0.00    +0.137 C 
BRANCH  25  26
ATOM     26  CB  ILE A  10      12.036  19.522   3.210  0.00  0.00    +0.026 C 
ATOM     27  CG2 ILE A  10      12.751  20.683   3.897  0.00  0.00    +0.002 C 
BRANCH  26  28
ATOM     28  CG1 ILE A  10      13.090  18.583   2.620  0.00  0.00    +0.002 C 
ATOM     29  CD1 ILE A  10      13.940  19.162   1.514  0.00  0.00    +0.000 C 
ENDBRANCH  26  28
ENDBRANCH  25  26
BRANCH  25  30
ATOM     30  C   ILE A  10      10.148  17.864   3.410  0.00  0.00    +0.227 C 
ATOM     31  O   ILE A  10      10.413  16.646   3.470  0.00  0.00    -0.286 OA
ENDBRANCH  25  30
ENDBRANCH  23  25
ENDBRANCH  20  21
BRANCH  20  32
ATOM     32  CB  PHE A   9      10.806  16.851   7.912  0.00  0.00    +0.055 C 
BRANCH  32  33
ATOM     33  CG  PHE A   9      11.186  15.647   8.745  0.00  0.00    -0.020 A 
ATOM     34  CD2 PHE A   9      11.485  15.800  10.091  0.00  0.00    -0.004 A 
ATOM     35  CE2 PHE A   9      11.848  14.702  10.866  0.00  0.00    -0.000 A 
ATOM     36  CZ  PHE A   9      11.942  13.455  10.266  0.00  0.00    -0.000 A 
ATOM     37  CE1 PHE A   9      11.635  13.298   8.926  0.00  0.00    -0.000 A 
ATOM     38  CD1 PHE A   9      11.246  14.390   8.182  0.00  0.00    -0.004 A 
ENDBRANCH  32  33
ENDBRANCH  20  32
ENDBRANCH  17  20
ENDBRANCH  15  16
ENDBRANCH  13  15
ENDBRANCH  10  11
ENDBRANCH   7  10
ENDBRANCH   5   6
BRANCH   5  39
ATOM     39  CB  ILE A   6      21.018  19.358  10.460  0.00  0.00    +0.027 C 
ATOM     40  CG2 ILE A   6      21.069  20.721  11.127  0.00  0.00    +0.002 C 
BRANCH  39  41
ATOM     41  CG1 ILE A   6      22.033  18.457  11.140  0.00  0.00    +0.002 C 
ATOM     42  CD1 ILE A   6      22.034  17.004  10.736  0.00  0.00    +0.000 C 
ENDBRANCH  39  41
ENDBRANCH   5  39
ENDBRANCH   3   5
BRANCH   1  43
ATOM     43  CA  GLY A   5      18.044  16.147   8.353  0.00  0.00    +0.176 C 
BRANCH  43  45
ATOM     44  C   GLY A   4      16.125  14.786   7.743  0.00  0.00    +0.243 C 
ATOM     45  N   GLY A   5      16.629  15.961   8.073  0.00  0.00    -0.295 N 
ATOM     46  H   GLY A   5      15.993  16.781   8.135  0.00  0.00    +0.150 HD
ATOM     47  O   GLY A   4      16.848  13.818   7.481  0.00  0.00    -0.273 OA
BRANCH  44  48
ATOM     48  CA  GLY A   4      14.628  14.719   7.677  0.00  0.00    +0.176 C 
BRANCH  48  50
ATOM     49  C   ILE A   3      13.439  14.589   5.558  0.00  0.00    +0.241 C 
ATOM     50  N   GLY A   4      14.190  13.997   6.498  0.00  0.00    -0.295 N 
ATOM     51  H   GLY A   4      14.464  13.001   6.379  0.00  0.00    +0.150 HD
ATOM     52  O   ILE A   3      13.139  15.798   5.557  0.00  0.00    -0.273 OA
BRANCH  49  53
ATOM     53  CA  ILE A   3      12.922  13.620   4.502  0.00  0.00    +0.149 C 
BRANCH  53  56
ATOM     54  C   MET A   2      10.575  12.999   4.304  0.00  0.00    +0.241 C 
ATOM     55  O   MET A   2      10.794  11.822   4.559  0.00  0.00    -0.273 OA
ATOM     56  N   ILE A   3      11.523  13.933   4.209  0.00  0.00    -0.297 N 
ATOM     57  H   ILE A   3      11.264  14.898   3.922  0.00  0.00    +0.150 HD
BRANCH  54  58
ATOM     58  CA  MET A   2       9.148  13.477   4.041  0.00  0.00    +0.149 C 
BRANCH  58  60
ATOM     59  C   LYS A   1       8.200  12.799   1.901  0.00  0.00    +0.238 C 
ATOM     60  N   MET A   2       8.531  12.517   3.138  0.00  0.00    -0.297 N 
ATOM     61  H   MET A   2       8.343  11.557   3.492  0.00  0.00    +0.150 HD
ATOM     62  O   LYS A   1       8.251  13.916   1.390  0.00  0.00    -0.274 OA
BRANCH  59  63
ATOM     63  CA  LYS A   1       7.800  11.623   1.033  0.00  0.00    +0.145 C 
BRANCH  63  64
ATOM     64  N   LYS A   1       6.783  12.028   0.092  0.00  0.00    -0.238 NA
ATOM     65  H   LYS A   1       6.767  13.012  -0.243  0.00  0.00    +0.142 HD
ENDBRANCH  63  64
BRANCH  63  66
ATOM     66  CB  LYS A   1       9.041  11.096   0.294  0.00  0.00    +0.026 C 
BRANCH  66  67
ATOM     67  CG  LYS A   1       9.972  10.262   1.176  0.00  0.00    -0.000 C 
BRANCH  67  68
ATOM     68  CD  LYS A   1      11.012   9.477   0.413  0.00  0.00    -0.024 C 
BRANCH  68  69
ATOM     69  CE  LYS A   1      12.076   8.928   1.324  0.00  0.00    -0.086 C 
BRANCH  69  70
ATOM     70  NZ  LYS A   1      11.730   7.712   2.053  0.00  0.00    +0.380 N 
ATOM     71  HZ1 LYS A   1      10.901   7.893   2.654  0.00  0.00    -0.089 HD
ATOM     72  HZ2 LYS A   1      12.534   7.425   2.647  0.00  0.00    -0.089 HD
ATOM     73  HZ3 LYS A   1      11.510   6.954   1.376  0.00  0.00    -0.089 HD
ENDBRANCH  69  70
ENDBRANCH  68  69
ENDBRANCH  67  68
ENDBRANCH  66  67
ENDBRANCH  63  66
ENDBRANCH  59  63
ENDBRANCH  58  60
BRANCH  58  74
ATOM     74  CB  MET A   2       8.305  13.641   5.328  0.00  0.00    +0.041 C 
BRANCH  74  75
ATOM     75  CG  MET A   2       6.973  14.399   5.148  0.00  0.00    +0.060 C 
BRANCH  75  76
ATOM     76  SD  MET A   2       7.080  16.150   5.536  0.00  0.00    -0.139 S 
ATOM     77  CE  MET A   2       5.343  16.554   5.712  0.00  0.00    +0.069 C 
ENDBRANCH  75  76
ENDBRANCH  74  75
ENDBRANCH  58  74
ENDBRANCH  54  58
ENDBRANCH  53  56
BRANCH  53  78
ATOM     78  CB  ILE A   3      13.812  13.619   3.252  0.00  0.00    +0.027 C 
ATOM     79  CG2 ILE A   3      13.407  12.477   2.334  0.00  0.00    +0.002 C 
BRANCH  78  80
ATOM     80  CG1 ILE A   3      13.801  14.973   2.547  0.00  0.00    +0.002 C 
ATOM     81  CD1 ILE A   3      14.755  15.114   1.385  0.00  0.00    +0.000 C 
ENDBRANCH  78  80
ENDBRANCH  53  78
ENDBRANCH  49  53
ENDBRANCH  48  50
ENDBRANCH  44  48
ENDBRANCH  43  45
ENDBRANCH   1  43
TORSDOF 36
REMARK  Name = ../refined-set-2016/1sdt/1sdt_pocket.pdb
REMARK  235 active torsions:
REMARK  status: ('A' for Active; 'I' for Inactive)
REMARK    1  A    between atoms: _1  and  _3
REMARK    2  A    between atoms: _3  and  _4
REMARK    3  A    between atoms: _3  and  _6
REMARK    4  A    between atoms: _6  and  _7
REMARK    5  A    between atoms: _7  and  _8
REMARK    6  A    between atoms: _8  and  _9
REMARK    7  A    between atoms: _18  and  _20
REMARK    8  A    between atoms: _20  and  _21
REMARK    9  A    between atoms: _20  and  _23
REMARK   10  A    between atoms: _23  and  _24
REMARK   11  A    between atoms: _27  and  _29
REMARK   12  A    between atoms: _29  and  _30
REMARK   13  A    between atoms: _29  and  _32
REMARK   14  A    between atoms: _32  and  _33
REMARK   15  A    between atoms: _36  and  _38
REMARK   16  A    between atoms: _38  and  _39
REMARK   17  A    between atoms: _38  and  _41
REMARK   18  A    between atoms: _41  and  _42
REMARK   19  A    between atoms: _45  and  _47
REMARK   20  A    between atoms: _47  and  _48
REMARK   21  A    between atoms: _47  and  _50
REMARK   22  A    between atoms: _50  and  _51
REMARK   23  A    between atoms: _54  and  _56
REMARK   24  A    between atoms: _56  and  _57
REMARK   25  A    between atoms: _56  and  _59
REMARK   26  A    between atoms: _59  and  _60
REMARK   27  A    between atoms: _63  and  _65
REMARK   28  A    between atoms: _65  and  _66
REMARK   29  A    between atoms: _68  and  _70
REMARK   30  A    between atoms: _70  and  _71
REMARK   31  A    between atoms: _74  and  _76
REMARK   32  A    between atoms: _76  and  _77
REMARK   33  A    between atoms: _76  and  _79
REMARK   34  A    between atoms: _79  and  _80
REMARK   35  A    between atoms: _83  and  _85
REMARK   36  A    between atoms: _85  and  _86
REMARK   37  A    between atoms: _85  and  _88
REMARK   38  A    between atoms: _88  and  _89
REMARK   39  A    between atoms: _92  and  _94
REMARK   40  A    between atoms: _94  and  _95
REMARK   41  A    between atoms: _94  and  _97
REMARK   42  A    between atoms: _97  and  _98
REMARK   43  A    between atoms: _101  and  _103
REMARK   44  A    between atoms: _103  and  _104
REMARK   45  A    between atoms: _103  and  _106
REMARK   46  A    between atoms: _109  and  _111
REMARK   47  A    between atoms: _111  and  _112
REMARK   48  A    between atoms: _111  and  _114
REMARK   49  A    between atoms: _114  and  _115
REMARK   50  A    between atoms: _115  and  _116
REMARK   51  A    between atoms: _116  and  _117
REMARK   52  A    between atoms: _117  and  _118
REMARK   53  A    between atoms: _122  and  _124
REMARK   54  A    between atoms: _124  and  _125
REMARK   55  A    between atoms: _124  and  _127
REMARK   56  A    between atoms: _127  and  _128
REMARK   57  A    between atoms: _128  and  _129
REMARK   58  A    between atoms: _131  and  _133
REMARK   59  A    between atoms: _133  and  _134
REMARK   60  A    between atoms: _133  and  _136
REMARK   61  A    between atoms: _136  and  _137
REMARK   62  A    between atoms: _140  and  _142
REMARK   63  A    between atoms: _142  and  _143
REMARK   64  A    between atoms: _145  and  _147
REMARK   65  A    between atoms: _147  and  _148
REMARK   66  A    between atoms: _150  and  _152
REMARK   67  A    between atoms: _152  and  _153
REMARK   68  A    between atoms: _152  and  _155
REMARK   69  A    between atoms: _155  and  _156
REMARK   70  A    between atoms: _159  and  _161
REMARK   71  A    between atoms: _161  and  _162
REMARK   72  A    between atoms: _164  and  _166
REMARK   73  A    between atoms: _166  and  _167
REMARK   74  A    between atoms: _169  and  _171
REMARK   75  A    between atoms: _171  and  _172
REMARK   76  A    between atoms: _171  and  _174
REMARK   77  A    between atoms: _174  and  _175
REMARK   78  A    between atoms: _181  and  _183
REMARK   79  A    between atoms: _183  and  _184
REMARK   80  A    between atoms: _183  and  _186
REMARK   81  A    between atoms: _186  and  _187
REMARK   82  A    between atoms: _190  and  _192
REMARK   83  A    between atoms: _192  and  _193
REMARK   84  A    between atoms: _192  and  _195
REMARK   85  A    between atoms: _198  and  _200
REMARK   86  A    between atoms: _200  and  _201
REMARK   87  A    between atoms: _200  and  _203
REMARK   88  A    between atoms: _203  and  _204
REMARK   89  A    between atoms: _207  and  _209
REMARK   90  A    between atoms: _209  and  _210
REMARK   91  A    between atoms: _209  and  _212
REMARK   92  A    between atoms: _212  and  _213
REMARK   93  A    between atoms: _217  and  _218
REMARK   94  A    between atoms: _223  and  _225
REMARK   95  A    between atoms: _225  and  _226
REMARK   96  A    between atoms: _225  and  _228
REMARK   97  A    between atoms: _231  and  _233
REMARK   98  A    between atoms: _233  and  _234
REMARK   99  A    between atoms: _233  and  _236
REMARK  100  A    between atoms: _236  and  _237
REMARK  101  A    between atoms: _242  and  _244
REMARK  102  A    between atoms: _244  and  _245
REMARK  103  A    between atoms: _244  and  _247
REMARK  104  A    between atoms: _247  and  _248
REMARK  105  A    between atoms: _251  and  _253
REMARK  106  A    between atoms: _253  and  _254
REMARK  107  A    between atoms: _253  and  _256
REMARK  108  A    between atoms: _256  and  _257
REMARK  109  A    between atoms: _260  and  _262
REMARK  110  A    between atoms: _262  and  _263
REMARK  111  A    between atoms: _265  and  _267
REMARK  112  A    between atoms: _267  and  _268
REMARK  113  A    between atoms: _267  and  _270
REMARK  114  A    between atoms: _270  and  _271
REMARK  115  A    between atoms: _271  and  _272
REMARK  116  A    between atoms: _272  and  _273
REMARK  117  A    between atoms: _282  and  _284
REMARK  118  A    between atoms: _284  and  _285
REMARK  119  A    between atoms: _284  and  _287
REMARK  120  A    between atoms: _288  and  _289
REMARK  121  A    between atoms: _289  and  _290
REMARK  122  A    between atoms: _299  and  _301
REMARK  123  A    between atoms: _301  and  _302
REMARK  124  A    between atoms: _301  and  _304
REMARK  125  A    between atoms: _304  and  _305
REMARK  126  A    between atoms: _308  and  _310
REMARK  127  A    between atoms: _310  and  _311
REMARK  128  A    between atoms: _310  and  _313
REMARK  129  A    between atoms: _313  and  _314
REMARK  130  A    between atoms: _317  and  _319
REMARK  131  A    between atoms: _319  and  _320
REMARK  132  A    between atoms: _319  and  _322
REMARK  133  A    between atoms: _322  and  _323
REMARK  134  A    between atoms: _326  and  _328
REMARK  135  A    between atoms: _328  and  _329
REMARK  136  A    between atoms: _328  and  _331
REMARK  137  A    between atoms: _331  and  _332
REMARK  138  A    between atoms: _335  and  _337
REMARK  139  A    between atoms: _337  and  _338
REMARK  140  A    between atoms: _340  and  _342
REMARK  141  A    between atoms: _342  and  _343
REMARK  142  A    between atoms: _346  and  _348
REMARK  143  A    between atoms: _348  and  _349
REMARK  144  A    between atoms: _348  and  _351
REMARK  145  A    between atoms: _351  and  _352
REMARK  146  A    between atoms: _355  and  _357
REMARK  147  A    between atoms: _357  and  _358
REMARK  148  A    between atoms: _357  and  _360
REMARK  149  A    between atoms: _360  and  _361
REMARK  150  A    between atoms: _364  and  _366
REMARK  151  A    between atoms: _366  and  _367
REMARK  152  A    between atoms: _366  and  _369
REMARK  153  A    between atoms: _369  and  _370
REMARK  154  A    between atoms: _373  and  _375
REMARK  155  A    between atoms: _375  and  _376
REMARK  156  A    between atoms: _375  and  _378
REMARK  157  A    between atoms: _381  and  _383
REMARK  158  A    between atoms: _383  and  _384
REMARK  159  A    between atoms: _383  and  _386
REMARK  160  A    between atoms: _386  and  _387
REMARK  161  A    between atoms: _390  and  _392
REMARK  162  A    between atoms: _392  and  _393
REMARK  163  A    between atoms: _392  and  _395
REMARK  164  A    between atoms: _395  and  _396
REMARK  165  A    between atoms: _396  and  _397
REMARK  166  A    between atoms: _397  and  _398
REMARK  167  A    between atoms: _398  and  _399
REMARK  168  A    between atoms: _403  and  _405
REMARK  169  A    between atoms: _405  and  _406
REMARK  170  A    between atoms: _405  and  _408
REMARK  171  A    between atoms: _408  and  _409
REMARK  172  A    between atoms: _409  and  _410
REMARK  173  A    between atoms: _412  and  _414
REMARK  174  A    between atoms: _414  and  _415
REMARK  175  A    between atoms: _414  and  _417
REMARK  176  A    between atoms: _417  and  _418
REMARK  177  A    between atoms: _421  and  _423
REMARK  178  A    between atoms: _423  and  _424
REMARK  179  A    between atoms: _426  and  _428
REMARK  180  A    between atoms: _428  and  _429
REMARK  181  A    between atoms: _431  and  _433
REMARK  182  A    between atoms: _433  and  _434
REMARK  183  A    between atoms: _433  and  _436
REMARK  184  A    between atoms: _436  and  _437
REMARK  185  A    between atoms: _440  and  _442
REMARK  186  A    between atoms: _442  and  _443
REMARK  187  A    between atoms: _445  and  _447
REMARK  188  A    between atoms: _447  and  _448
REMARK  189  A    between atoms: _450  and  _452
REMARK  190  A    between atoms: _452  and  _453
REMARK  191  A    between atoms: _452  and  _455
REMARK  192  A    between atoms: _455  and  _456
REMARK  193  A    between atoms: _462  and  _464
REMARK  194  A    between atoms: _464  and  _465
REMARK  195  A    between atoms: _464  and  _467
REMARK  196  A    between atoms: _467  and  _468
REMARK  197  A    between atoms: _471  and  _473
REMARK  198  A    between atoms: _473  and  _474
REMARK  199  A    between atoms: _473  and  _476
REMARK  200  A    between atoms: _479  and  _481
REMARK  201  A    between atoms: _481  and  _482
REMARK  202  A    between atoms: _481  and  _484
REMARK  203  A    between atoms: _484  and  _485
REMARK  204  A    between atoms: _488  and  _490
REMARK  205  A    between atoms: _490  and  _491
REMARK  206  A    between atoms: _490  and  _493
REMARK  207  A    between atoms: _493  and  _494
REMARK  208  A    between atoms: _498  and  _499
REMARK  209  A    between atoms: _504  and  _506
REMARK  210  A    between atoms: _506  and  _507
REMARK  211  A    between atoms: _506  and  _509
REMARK  212  A    between atoms: _512  and  _514
REMARK  213  A    between atoms: _514  and  _515
REMARK  214  A    between atoms: _514  and  _517
REMARK  215  A    between atoms: _517  and  _518
REMARK  216  A    between atoms: _523  and  _525
REMARK  217  A    between atoms: _525  and  _526
REMARK  218  A    between atoms: _525  and  _528
REMARK  219  A    between atoms: _528  and  _529
REMARK  220  A    between atoms: _532  and  _534
REMARK  221  A    between atoms: _534  and  _535
REMARK  222  A    between atoms: _534  and  _537
REMARK  223  A    between atoms: _537  and  _538
REMARK  224  A    between atoms: _541  and  _543
REMARK  225  A    between atoms: _543  and  _544
REMARK  226  A    between atoms: _546  and  _548
REMARK  227  A    between atoms: _548  and  _549
REMARK  228  A    between atoms: _548  and  _551
REMARK  229  A    between atoms: _551  and  _552
REMARK  230  A    between atoms: _552  and  _553
REMARK  231  A    between atoms: _553  and  _554
REMARK  232  A    between atoms: _563  and  _565
REMARK  233  A    between atoms: _565  and  _566
REMARK  234  A    between atoms: _565  and  _568
REMARK  235  A    between atoms: _568  and  _569
REMARK                            x       y       z     vdW  Elec       q    Type
REMARK                         _______ _______ _______ _____ _____    ______ ____
ROOT
ATOM      1  CA  VAL A   1       9.311  16.265  -1.424  0.00  0.00    +0.133 C 
ENDROOT
BRANCH   1   2
ATOM      2  CB  VAL A   1      10.741  15.692  -1.435  0.00  0.00    +0.023 C 
ATOM      3  CG2 VAL A   1      11.678  16.582  -0.630  0.00  0.00    +0.002 C 
ATOM      4  CG1 VAL A   1      10.735  14.269  -0.917  0.00  0.00    +0.002 C 
ENDBRANCH   1   2
BRANCH   1   5
ATOM      5  N   VAL A   1       8.785  16.394  -0.075  0.00  0.00    -0.239 NA
ATOM      6  H   VAL A   1       8.438  15.554   0.431  0.00  0.00    +0.142 HD
ENDBRANCH   1   5
BRANCH   1   7
ATOM      7  C   VAL A   1       8.390  15.380  -2.266  0.00  0.00    +0.224 C 
ATOM      8  O   VAL A   1       7.521  14.674  -1.742  0.00  0.00    -0.287 OA
ENDBRANCH   1   7
TORSDOF 3
REMARK  Name = ../refined-set-2016/1sdt/1sdt_pocket.pdb
REMARK  235 active torsions:
REMARK  status: ('A' for Active; 'I' for Inactive)
REMARK    1  A    between atoms: _1  and  _3
REMARK    2  A    between atoms: _3  and  _4
REMARK    3  A    between atoms: _3  and  _6
REMARK    4  A    between atoms: _6  and  _7
REMARK    5  A    between atoms: _7  and  _8
REMARK    6  A    between atoms: _8  and  _9
REMARK    7  A    between atoms: _18  and  _20
REMARK    8  A    between atoms: _20  and  _21
REMARK    9  A    between atoms: _20  and  _23
REMARK   10  A    between atoms: _23  and  _24
REMARK   11  A    between atoms: _27  and  _29
REMARK   12  A    between atoms: _29  and  _30
REMARK   13  A    between atoms: _29  and  _32
REMARK   14  A    between atoms: _32  and  _33
REMARK   15  A    between atoms: _36  and  _38
REMARK   16  A    between atoms: _38  and  _39
REMARK   17  A    between atoms: _38  and  _41
REMARK   18  A    between atoms: _41  and  _42
REMARK   19  A    between atoms: _45  and  _47
REMARK   20  A    between atoms: _47  and  _48
REMARK   21  A    between atoms: _47  and  _50
REMARK   22  A    between atoms: _50  and  _51
REMARK   23  A    between atoms: _54  and  _56
REMARK   24  A    between atoms: _56  and  _57
REMARK   25  A    between atoms: _56  and  _59
REMARK   26  A    between atoms: _59  and  _60
REMARK   27  A    between atoms: _63  and  _65
REMARK   28  A    between atoms: _65  and  _66
REMARK   29  A    between atoms: _68  and  _70
REMARK   30  A    between atoms: _70  and  _71
REMARK   31  A    between atoms: _74  and  _76
REMARK   32  A    between atoms: _76  and  _77
REMARK   33  A    between atoms: _76  and  _79
REMARK   34  A    between atoms: _79  and  _80
REMARK   35  A    between atoms: _83  and  _85
REMARK   36  A    between atoms: _85  and  _86
REMARK   37  A    between atoms: _85  and  _88
REMARK   38  A    between atoms: _88  and  _89
REMARK   39  A    between atoms: _92  and  _94
REMARK   40  A    between atoms: _94  and  _95
REMARK   41  A    between atoms: _94  and  _97
REMARK   42  A    between atoms: _97  and  _98
REMARK   43  A    between atoms: _101  and  _103
REMARK   44  A    between atoms: _103  and  _104
REMARK   45  A    between atoms: _103  and  _106
REMARK   46  A    between atoms: _109  and  _111
REMARK   47  A    between atoms: _111  and  _112
REMARK   48  A    between atoms: _111  and  _114
REMARK   49  A    between atoms: _114  and  _115
REMARK   50  A    between atoms: _115  and  _116
REMARK   51  A    between atoms: _116  and  _117
REMARK   52  A    between atoms: _117  and  _118
REMARK   53  A    between atoms: _122  and  _124
REMARK   54  A    between atoms: _124  and  _125
REMARK   55  A    between atoms: _124  and  _127
REMARK   56  A    between atoms: _127  and  _128
REMARK   57  A    between atoms: _128  and  _129
REMARK   58  A    between atoms: _131  and  _133
REMARK   59  A    between atoms: _133  and  _134
REMARK   60  A    between atoms: _133  and  _136
REMARK   61  A    between atoms: _136  and  _137
REMARK   62  A    between atoms: _140  and  _142
REMARK   63  A    between atoms: _142  and  _143
REMARK   64  A    between atoms: _145  and  _147
REMARK   65  A    between atoms: _147  and  _148
REMARK   66  A    between atoms: _150  and  _152
REMARK   67  A    between atoms: _152  and  _153
REMARK   68  A    between atoms: _152  and  _155
REMARK   69  A    between atoms: _155  and  _156
REMARK   70  A    between atoms: _159  and  _161
REMARK   71  A    between atoms: _161  and  _162
REMARK   72  A    between atoms: _164  and  _166
REMARK   73  A    between atoms: _166  and  _167
REMARK   74  A    between atoms: _169  and  _171
REMARK   75  A    between atoms: _171  and  _172
REMARK   76  A    between atoms: _171  and  _174
REMARK   77  A    between atoms: _174  and  _175
REMARK   78  A    between atoms: _181  and  _183
REMARK   79  A    between atoms: _183  and  _184
REMARK   80  A    between atoms: _183  and  _186
REMARK   81  A    between atoms: _186  and  _187
REMARK   82  A    between atoms: _190  and  _192
REMARK   83  A    between atoms: _192  and  _193
REMARK   84  A    between atoms: _192  and  _195
REMARK   85  A    between atoms: _198  and  _200
REMARK   86  A    between atoms: _200  and  _201
REMARK   87  A    between atoms: _200  and  _203
REMARK   88  A    between atoms: _203  and  _204
REMARK   89  A    between atoms: _207  and  _209
REMARK   90  A    between atoms: _209  and  _210
REMARK   91  A    between atoms: _209  and  _212
REMARK   92  A    between atoms: _212  and  _213
REMARK   93  A    between atoms: _217  and  _218
REMARK   94  A    between atoms: _223  and  _225
REMARK   95  A    between atoms: _225  and  _226
REMARK   96  A    between atoms: _225  and  _228
REMARK   97  A    between atoms: _231  and  _233
REMARK   98  A    between atoms: _233  and  _234
REMARK   99  A    between atoms: _233  and  _236
REMARK  100  A    between atoms: _236  and  _237
REMARK  101  A    between atoms: _242  and  _244
REMARK  102  A    between atoms: _244  and  _245
REMARK  103  A    between atoms: _244  and  _247
REMARK  104  A    between atoms: _247  and  _248
REMARK  105  A    between atoms: _251  and  _253
REMARK  106  A    between atoms: _253  and  _254
REMARK  107  A    between atoms: _253  and  _256
REMARK  108  A    between atoms: _256  and  _257
REMARK  109  A    between atoms: _260  and  _262
REMARK  110  A    between atoms: _262  and  _263
REMARK  111  A    between atoms: _265  and  _267
REMARK  112  A    between atoms: _267  and  _268
REMARK  113  A    between atoms: _267  and  _270
REMARK  114  A    between atoms: _270  and  _271
REMARK  115  A    between atoms: _271  and  _272
REMARK  116  A    between atoms: _272  and  _273
REMARK  117  A    between atoms: _282  and  _284
REMARK  118  A    between atoms: _284  and  _285
REMARK  119  A    between atoms: _284  and  _287
REMARK  120  A    between atoms: _288  and  _289
REMARK  121  A    between atoms: _289  and  _290
REMARK  122  A    between atoms: _299  and  _301
REMARK  123  A    between atoms: _301  and  _302
REMARK  124  A    between atoms: _301  and  _304
REMARK  125  A    between atoms: _304  and  _305
REMARK  126  A    between atoms: _308  and  _310
REMARK  127  A    between atoms: _310  and  _311
REMARK  128  A    between atoms: _310  and  _313
REMARK  129  A    between atoms: _313  and  _314
REMARK  130  A    between atoms: _317  and  _319
REMARK  131  A    between atoms: _319  and  _320
REMARK  132  A    between atoms: _319  and  _322
REMARK  133  A    between atoms: _322  and  _323
REMARK  134  A    between atoms: _326  and  _328
REMARK  135  A    between atoms: _328  and  _329
REMARK  136  A    between atoms: _328  and  _331
REMARK  137  A    between atoms: _331  and  _332
REMARK  138  A    between atoms: _335  and  _337
REMARK  139  A    between atoms: _337  and  _338
REMARK  140  A    between atoms: _340  and  _342
REMARK  141  A    between atoms: _342  and  _343
REMARK  142  A    between atoms: _346  and  _348
REMARK  143  A    between atoms: _348  and  _349
REMARK  144  A    between atoms: _348  and  _351
REMARK  145  A    between atoms: _351  and  _352
REMARK  146  A    between atoms: _355  and  _357
REMARK  147  A    between atoms: _357  and  _358
REMARK  148  A    between atoms: _357  and  _360
REMARK  149  A    between atoms: _360  and  _361
REMARK  150  A    between atoms: _364  and  _366
REMARK  151  A    between atoms: _366  and  _367
REMARK  152  A    between atoms: _366  and  _369
REMARK  153  A    between atoms: _369  and  _370
REMARK  154  A    between atoms: _373  and  _375
REMARK  155  A    between atoms: _375  and  _376
REMARK  156  A    between atoms: _375  and  _378
REMARK  157  A    between atoms: _381  and  _383
REMARK  158  A    between atoms: _383  and  _384
REMARK  159  A    between atoms: _383  and  _386
REMARK  160  A    between atoms: _386  and  _387
REMARK  161  A    between atoms: _390  and  _392
REMARK  162  A    between atoms: _392  and  _393
REMARK  163  A    between atoms: _392  and  _395
REMARK  164  A    between atoms: _395  and  _396
REMARK  165  A    between atoms: _396  and  _397
REMARK  166  A    between atoms: _397  and  _398
REMARK  167  A    between atoms: _398  and  _399
REMARK  168  A    between atoms: _403  and  _405
REMARK  169  A    between atoms: _405  and  _406
REMARK  170  A    between atoms: _405  and  _408
REMARK  171  A    between atoms: _408  and  _409
REMARK  172  A    between atoms: _409  and  _410
REMARK  173  A    between atoms: _412  and  _414
REMARK  174  A    between atoms: _414  and  _415
REMARK  175  A    between atoms: _414  and  _417
REMARK  176  A    between atoms: _417  and  _418
REMARK  177  A    between atoms: _421  and  _423
REMARK  178  A    between atoms: _423  and  _424
REMARK  179  A    between atoms: _426  and  _428
REMARK  180  A    between atoms: _428  and  _429
REMARK  181  A    between atoms: _431  and  _433
REMARK  182  A    between atoms: _433  and  _434
REMARK  183  A    between atoms: _433  and  _436
REMARK  184  A    between atoms: _436  and  _437
REMARK  185  A    between atoms: _440  and  _442
REMARK  186  A    between atoms: _442  and  _443
REMARK  187  A    between atoms: _445  and  _447
REMARK  188  A    between atoms: _447  and  _448
REMARK  189  A    between atoms: _450  and  _452
REMARK  190  A    between atoms: _452  and  _453
REMARK  191  A    between atoms: _452  and  _455
REMARK  192  A    between atoms: _455  and  _456
REMARK  193  A    between atoms: _462  and  _464
REMARK  194  A    between atoms: _464  and  _465
REMARK  195  A    between atoms: _464  and  _467
REMARK  196  A    between atoms: _467  and  _468
REMARK  197  A    between atoms: _471  and  _473
REMARK  198  A    between atoms: _473  and  _474
REMARK  199  A    between atoms: _473  and  _476
REMARK  200  A    between atoms: _479  and  _481
REMARK  201  A    between atoms: _481  and  _482
REMARK  202  A    between atoms: _481  and  _484
REMARK  203  A    between atoms: _484  and  _485
REMARK  204  A    between atoms: _488  and  _490
REMARK  205  A    between atoms: _490  and  _491
REMARK  206  A    between atoms: _490  and  _493
REMARK  207  A    between atoms: _493  and  _494
REMARK  208  A    between atoms: _498  and  _499
REMARK  209  A    between atoms: _504  and  _506
REMARK  210  A    between atoms: _506  and  _507
REMARK  211  A    between atoms: _506  and  _509
REMARK  212  A    between atoms: _512  and  _514
REMARK  213  A    between atoms: _514  and  _515
REMARK  214  A    between atoms: _514  and  _517
REMARK  215  A    between atoms: _517  and  _518
REMARK  216  A    between atoms: _523  and  _525
REMARK  217  A    between atoms: _525  and  _526
REMARK  218  A    between atoms: _525  and  _528
REMARK  219  A    between atoms: _528  and  _529
REMARK  220  A    between atoms: _532  and  _534
REMARK  221  A    between atoms: _534  and  _535
REMARK  222  A    between atoms: _534  and  _537
REMARK  223  A    between atoms: _537  and  _538
REMARK  224  A    between atoms: _541  and  _543
REMARK  225  A    between atoms: _543  and  _544
REMARK  226  A    between atoms: _546  and  _548
REMARK  227  A    between atoms: _548  and  _549
REMARK  228  A    between atoms: _548  and  _551
REMARK  229  A    between atoms: _551  and  _552
REMARK  230  A    between atoms: _552  and  _553
REMARK  231  A    between atoms: _553  and  _554
REMARK  232  A    between atoms: _563  and  _565
REMARK  233  A    between atoms: _565  and  _566
REMARK  234  A    between atoms: _565  and  _568
REMARK  235  A    between atoms: _568  and  _569
REMARK                            x       y       z     vdW  Elec       q    Type
REMARK                         _______ _______ _______ _____ _____    ______ ____
ROOT
ATOM      1  CA  LEU A   1      13.180  13.236  -4.921  0.00  0.00    +0.133 C 
ENDROOT
BRANCH   1   2
ATOM      2  N   LEU A   1      14.081  12.368  -5.623  0.00  0.00    -0.239 NA
ATOM      3  H   LEU A   1      15.044  12.245  -5.250  0.00  0.00    +0.142 HD
ENDBRANCH   1   2
BRANCH   1   4
ATOM      4  C   LEU A   1      13.352  14.666  -5.396  0.00  0.00    +0.224 C 
ATOM      5  O   LEU A   1      14.483  15.073  -5.704  0.00  0.00    -0.287 OA
ENDBRANCH   1   4
BRANCH   1   6
ATOM      6  CB  LEU A   1      13.439  13.172  -3.419  0.00  0.00    +0.025 C 
BRANCH   6   7
ATOM      7  CG  LEU A   1      13.559  11.765  -2.819  0.00  0.00    +0.002 C 
ATOM      8  CD2 LEU A   1      13.852  11.825  -1.339  0.00  0.00    +0.000 C 
ATOM      9  CD1 LEU A   1      12.300  10.985  -3.106  0.00  0.00    +0.000 C 
ENDBRANCH   6   7
ENDBRANCH   1   6
TORSDOF 4
REMARK  Name = ../refined-set-2016/1sdt/1sdt_pocket.pdb
REMARK  235 active torsions:
REMARK  status: ('A' for Active; 'I' for Inactive)
REMARK    1  A    between atoms: _1  and  _3
REMARK    2  A    between atoms: _3  and  _4
REMARK    3  A    between atoms: _3  and  _6
REMARK    4  A    between atoms: _6  and  _7
REMARK    5  A    between atoms: _7  and  _8
REMARK    6  A    between atoms: _8  and  _9
REMARK    7  A    between atoms: _18  and  _20
REMARK    8  A    between atoms: _20  and  _21
REMARK    9  A    between atoms: _20  and  _23
REMARK   10  A    between atoms: _23  and  _24
REMARK   11  A    between atoms: _27  and  _29
REMARK   12  A    between atoms: _29  and  _30
REMARK   13  A    between atoms: _29  and  _32
REMARK   14  A    between atoms: _32  and  _33
REMARK   15  A    between atoms: _36  and  _38
REMARK   16  A    between atoms: _38  and  _39
REMARK   17  A    between atoms: _38  and  _41
REMARK   18  A    between atoms: _41  and  _42
REMARK   19  A    between atoms: _45  and  _47
REMARK   20  A    between atoms: _47  and  _48
REMARK   21  A    between atoms: _47  and  _50
REMARK   22  A    between atoms: _50  and  _51
REMARK   23  A    between atoms: _54  and  _56
REMARK   24  A    between atoms: _56  and  _57
REMARK   25  A    between atoms: _56  and  _59
REMARK   26  A    between atoms: _59  and  _60
REMARK   27  A    between atoms: _63  and  _65
REMARK   28  A    between atoms: _65  and  _66
REMARK   29  A    between atoms: _68  and  _70
REMARK   30  A    between atoms: _70  and  _71
REMARK   31  A    between atoms: _74  and  _76
REMARK   32  A    between atoms: _76  and  _77
REMARK   33  A    between atoms: _76  and  _79
REMARK   34  A    between atoms: _79  and  _80
REMARK   35  A    between atoms: _83  and  _85
REMARK   36  A    between atoms: _85  and  _86
REMARK   37  A    between atoms: _85  and  _88
REMARK   38  A    between atoms: _88  and  _89
REMARK   39  A    between atoms: _92  and  _94
REMARK   40  A    between atoms: _94  and  _95
REMARK   41  A    between atoms: _94  and  _97
REMARK   42  A    between atoms: _97  and  _98
REMARK   43  A    between atoms: _101  and  _103
REMARK   44  A    between atoms: _103  and  _104
REMARK   45  A    between atoms: _103  and  _106
REMARK   46  A    between atoms: _109  and  _111
REMARK   47  A    between atoms: _111  and  _112
REMARK   48  A    between atoms: _111  and  _114
REMARK   49  A    between atoms: _114  and  _115
REMARK   50  A    between atoms: _115  and  _116
REMARK   51  A    between atoms: _116  and  _117
REMARK   52  A    between atoms: _117  and  _118
REMARK   53  A    between atoms: _122  and  _124
REMARK   54  A    between atoms: _124  and  _125
REMARK   55  A    between atoms: _124  and  _127
REMARK   56  A    between atoms: _127  and  _128
REMARK   57  A    between atoms: _128  and  _129
REMARK   58  A    between atoms: _131  and  _133
REMARK   59  A    between atoms: _133  and  _134
REMARK   60  A    between atoms: _133  and  _136
REMARK   61  A    between atoms: _136  and  _137
REMARK   62  A    between atoms: _140  and  _142
REMARK   63  A    between atoms: _142  and  _143
REMARK   64  A    between atoms: _145  and  _147
REMARK   65  A    between atoms: _147  and  _148
REMARK   66  A    between atoms: _150  and  _152
REMARK   67  A    between atoms: _152  and  _153
REMARK   68  A    between atoms: _152  and  _155
REMARK   69  A    between atoms: _155  and  _156
REMARK   70  A    between atoms: _159  and  _161
REMARK   71  A    between atoms: _161  and  _162
REMARK   72  A    between atoms: _164  and  _166
REMARK   73  A    between atoms: _166  and  _167
REMARK   74  A    between atoms: _169  and  _171
REMARK   75  A    between atoms: _171  and  _172
REMARK   76  A    between atoms: _171  and  _174
REMARK   77  A    between atoms: _174  and  _175
REMARK   78  A    between atoms: _181  and  _183
REMARK   79  A    between atoms: _183  and  _184
REMARK   80  A    between atoms: _183  and  _186
REMARK   81  A    between atoms: _186  and  _187
REMARK   82  A    between atoms: _190  and  _192
REMARK   83  A    between atoms: _192  and  _193
REMARK   84  A    between atoms: _192  and  _195
REMARK   85  A    between atoms: _198  and  _200
REMARK   86  A    between atoms: _200  and  _201
REMARK   87  A    between atoms: _200  and  _203
REMARK   88  A    between atoms: _203  and  _204
REMARK   89  A    between atoms: _207  and  _209
REMARK   90  A    between atoms: _209  and  _210
REMARK   91  A    between atoms: _209  and  _212
REMARK   92  A    between atoms: _212  and  _213
REMARK   93  A    between atoms: _217  and  _218
REMARK   94  A    between atoms: _223  and  _225
REMARK   95  A    between atoms: _225  and  _226
REMARK   96  A    between atoms: _225  and  _228
REMARK   97  A    between atoms: _231  and  _233
REMARK   98  A    between atoms: _233  and  _234
REMARK   99  A    between atoms: _233  and  _236
REMARK  100  A    between atoms: _236  and  _237
REMARK  101  A    between atoms: _242  and  _244
REMARK  102  A    between atoms: _244  and  _245
REMARK  103  A    between atoms: _244  and  _247
REMARK  104  A    between atoms: _247  and  _248
REMARK  105  A    between atoms: _251  and  _253
REMARK  106  A    between atoms: _253  and  _254
REMARK  107  A    between atoms: _253  and  _256
REMARK  108  A    between atoms: _256  and  _257
REMARK  109  A    between atoms: _260  and  _262
REMARK  110  A    between atoms: _262  and  _263
REMARK  111  A    between atoms: _265  and  _267
REMARK  112  A    between atoms: _267  and  _268
REMARK  113  A    between atoms: _267  and  _270
REMARK  114  A    between atoms: _270  and  _271
REMARK  115  A    between atoms: _271  and  _272
REMARK  116  A    between atoms: _272  and  _273
REMARK  117  A    between atoms: _282  and  _284
REMARK  118  A    between atoms: _284  and  _285
REMARK  119  A    between atoms: _284  and  _287
REMARK  120  A    between atoms: _288  and  _289
REMARK  121  A    between atoms: _289  and  _290
REMARK  122  A    between atoms: _299  and  _301
REMARK  123  A    between atoms: _301  and  _302
REMARK  124  A    between atoms: _301  and  _304
REMARK  125  A    between atoms: _304  and  _305
REMARK  126  A    between atoms: _308  and  _310
REMARK  127  A    between atoms: _310  and  _311
REMARK  128  A    between atoms: _310  and  _313
REMARK  129  A    between atoms: _313  and  _314
REMARK  130  A    between atoms: _317  and  _319
REMARK  131  A    between atoms: _319  and  _320
REMARK  132  A    between atoms: _319  and  _322
REMARK  133  A    between atoms: _322  and  _323
REMARK  134  A    between atoms: _326  and  _328
REMARK  135  A    between atoms: _328  and  _329
REMARK  136  A    between atoms: _328  and  _331
REMARK  137  A    between atoms: _331  and  _332
REMARK  138  A    between atoms: _335  and  _337
REMARK  139  A    between atoms: _337  and  _338
REMARK  140  A    between atoms: _340  and  _342
REMARK  141  A    between atoms: _342  and  _343
REMARK  142  A    between atoms: _346  and  _348
REMARK  143  A    between atoms: _348  and  _349
REMARK  144  A    between atoms: _348  and  _351
REMARK  145  A    between atoms: _351  and  _352
REMARK  146  A    between atoms: _355  and  _357
REMARK  147  A    between atoms: _357  and  _358
REMARK  148  A    between atoms: _357  and  _360
REMARK  149  A    between atoms: _360  and  _361
REMARK  150  A    between atoms: _364  and  _366
REMARK  151  A    between atoms: _366  and  _367
REMARK  152  A    between atoms: _366  and  _369
REMARK  153  A    between atoms: _369  and  _370
REMARK  154  A    between atoms: _373  and  _375
REMARK  155  A    between atoms: _375  and  _376
REMARK  156  A    between atoms: _375  and  _378
REMARK  157  A    between atoms: _381  and  _383
REMARK  158  A    between atoms: _383  and  _384
REMARK  159  A    between atoms: _383  and  _386
REMARK  160  A    between atoms: _386  and  _387
REMARK  161  A    between atoms: _390  and  _392
REMARK  162  A    between atoms: _392  and  _393
REMARK  163  A    between atoms: _392  and  _395
REMARK  164  A    between atoms: _395  and  _396
REMARK  165  A    between atoms: _396  and  _397
REMARK  166  A    between atoms: _397  and  _398
REMARK  167  A    between atoms: _398  and  _399
REMARK  168  A    between atoms: _403  and  _405
REMARK  169  A    between atoms: _405  and  _406
REMARK  170  A    between atoms: _405  and  _408
REMARK  171  A    between atoms: _408  and  _409
REMARK  172  A    between atoms: _409  and  _410
REMARK  173  A    between atoms: _412  and  _414
REMARK  174  A    between atoms: _414  and  _415
REMARK  175  A    between atoms: _414  and  _417
REMARK  176  A    between atoms: _417  and  _418
REMARK  177  A    between atoms: _421  and  _423
REMARK  178  A    between atoms: _423  and  _424
REMARK  179  A    between atoms: _426  and  _428
REMARK  180  A    between atoms: _428  and  _429
REMARK  181  A    between atoms: _431  and  _433
REMARK  182  A    between atoms: _433  and  _434
REMARK  183  A    between atoms: _433  and  _436
REMARK  184  A    between atoms: _436  and  _437
REMARK  185  A    between atoms: _440  and  _442
REMARK  186  A    between atoms: _442  and  _443
REMARK  187  A    between atoms: _445  and  _447
REMARK  188  A    between atoms: _447  and  _448
REMARK  189  A    between atoms: _450  and  _452
REMARK  190  A    between atoms: _452  and  _453
REMARK  191  A    between atoms: _452  and  _455
REMARK  192  A    between atoms: _455  and  _456
REMARK  193  A    between atoms: _462  and  _464
REMARK  194  A    between atoms: _464  and  _465
REMARK  195  A    between atoms: _464  and  _467
REMARK  196  A    between atoms: _467  and  _468
REMARK  197  A    between atoms: _471  and  _473
REMARK  198  A    between atoms: _473  and  _474
REMARK  199  A    between atoms: _473  and  _476
REMARK  200  A    between atoms: _479  and  _481
REMARK  201  A    between atoms: _481  and  _482
REMARK  202  A    between atoms: _481  and  _484
REMARK  203  A    between atoms: _484  and  _485
REMARK  204  A    between atoms: _488  and  _490
REMARK  205  A    between atoms: _490  and  _491
REMARK  206  A    between atoms: _490  and  _493
REMARK  207  A    between atoms: _493  and  _494
REMARK  208  A    between atoms: _498  and  _499
REMARK  209  A    between atoms: _504  and  _506
REMARK  210  A    between atoms: _506  and  _507
REMARK  211  A    between atoms: _506  and  _509
REMARK  212  A    between atoms: _512  and  _514
REMARK  213  A    between atoms: _514  and  _515
REMARK  214  A    between atoms: _514  and  _517
REMARK  215  A    between atoms: _517  and  _518
REMARK  216  A    between atoms: _523  and  _525
REMARK  217  A    between atoms: _525  and  _526
REMARK  218  A    between atoms: _525  and  _528
REMARK  219  A    between atoms: _528  and  _529
REMARK  220  A    between atoms: _532  and  _534
REMARK  221  A    between atoms: _534  and  _535
REMARK  222  A    between atoms: _534  and  _537
REMARK  223  A    between atoms: _537  and  _538
REMARK  224  A    between atoms: _541  and  _543
REMARK  225  A    between atoms: _543  and  _544
REMARK  226  A    between atoms: _546  and  _548
REMARK  227  A    between atoms: _548  and  _549
REMARK  228  A    between atoms: _548  and  _551
REMARK  229  A    between atoms: _551  and  _552
REMARK  230  A    between atoms: _552  and  _553
REMARK  231  A    between atoms: _553  and  _554
REMARK  232  A    between atoms: _563  and  _565
REMARK  233  A    between atoms: _565  and  _566
REMARK  234  A    between atoms: _565  and  _568
REMARK  235  A    between atoms: _568  and  _569
REMARK                            x       y       z     vdW  Elec       q    Type
REMARK                         _______ _______ _______ _____ _____    ______ ____
ROOT
ATOM      1  C   ILE A   5      22.092  14.531  -3.969  0.00  0.00    +0.241 C 
ATOM      2  N   ILE A   6      23.221  13.884  -4.207  0.00  0.00    -0.297 N 
ATOM      3  H   ILE A   6      24.130  14.375  -4.086  0.00  0.00    +0.150 HD
ATOM      4  O   ILE A   5      20.942  14.107  -4.218  0.00  0.00    -0.273 OA
ENDROOT
BRANCH   2   5
ATOM      5  CA  ILE A   6      23.207  12.488  -4.637  0.00  0.00    +0.149 C 
BRANCH   5   6
ATOM      6  C   ILE A   6      23.478  11.659  -3.400  0.00  0.00    +0.241 C 
ATOM      7  O   ILE A   6      24.587  11.733  -2.804  0.00  0.00    -0.273 OA
ATOM      8  N   GLY A   7      22.486  10.872  -2.995  0.00  0.00    -0.295 N 
ATOM      9  H   GLY A   7      21.602  10.851  -3.542  0.00  0.00    +0.150 HD
BRANCH   8  10
ATOM     10  CA  GLY A   7      22.604  10.040  -1.808  0.00  0.00    +0.176 C 
BRANCH  10  11
ATOM     11  C   GLY A   7      22.884   8.590  -2.101  0.00  0.00    +0.243 C 
ATOM     12  N   ARG A   8      22.768   7.787  -1.017  0.00  0.00    -0.297 N 
ATOM     13  H   ARG A   8      22.354   8.147  -0.133  0.00  0.00    +0.150 HD
ATOM     14  O   GLY A   7      23.130   8.195  -3.228  0.00  0.00    -0.273 OA
BRANCH  12  15
ATOM     15  CA  ARG A   8      23.232   6.416  -1.111  0.00  0.00    +0.149 C 
BRANCH  15  16
ATOM     16  C   ARG A   8      22.492   5.565  -2.100  0.00  0.00    +0.241 C 
ATOM     17  N   ASN A   9      21.229   5.837  -2.386  0.00  0.00    -0.298 N 
ATOM     18  H   ASN A   9      20.758   6.644  -1.929  0.00  0.00    +0.150 HD
ATOM     19  O   ARG A   8      23.062   4.616  -2.641  0.00  0.00    -0.273 OA
BRANCH  17  20
ATOM     20  CA  ASN A   9      20.494   5.013  -3.337  0.00  0.00    +0.146 C 
BRANCH  20  21
ATOM     21  C   ASN A   9      21.180   5.029  -4.693  0.00  0.00    +0.227 C 
ATOM     22  O   ASN A   9      21.215   4.003  -5.357  0.00  0.00    -0.286 OA
ENDBRANCH  20  21
BRANCH  20  23
ATOM     23  CB  ASN A   9      19.041   5.445  -3.450  0.00  0.00    +0.112 C 
BRANCH  23  24
ATOM     24  CG  ASN A   9      18.832   6.803  -4.089  0.00  0.00    +0.222 C 
ATOM     25  OD1 ASN A   9      19.432   7.818  -3.692  0.00  0.00    -0.275 OA
ATOM     26  ND2 ASN A   9      18.009   6.795  -5.112  0.00  0.00    -0.329 N 
ATOM     27 HD21 ASN A   9      17.538   5.912  -5.394  0.00  0.00    +0.145 HD
ATOM     28 HD22 ASN A   9      17.828   7.672  -5.641  0.00  0.00    +0.145 HD
ENDBRANCH  23  24
ENDBRANCH  20  23
ENDBRANCH  17  20
ENDBRANCH  15  16
BRANCH  15  29
ATOM     29  CB  ARG A   8      23.232   5.778   0.296  0.00  0.00    +0.033 C 
BRANCH  29  30
ATOM     30  CG  ARG A   8      24.242   6.393   1.243  0.00  0.00    +0.045 C 
BRANCH  30  31
ATOM     31  CD  ARG A   8      24.447   5.603   2.548  0.00  0.00    +0.174 C 
BRANCH  31  32
ATOM     32  NE  ARG A   8      23.176   5.563   3.289  0.00  0.00    -0.265 N 
ATOM     33  HE  ARG A   8      22.988   6.399   3.879  0.00  0.00    +0.259 HD
ATOM     34  CZ  ARG A   8      22.239   4.640   3.325  0.00  0.00    +0.342 C 
ATOM     35  NH2 ARG A   8      21.120   4.845   4.043  0.00  0.00    -0.292 N 
ATOM     36 HH21 ARG A   8      20.995   5.733   4.570  0.00  0.00    +0.255 HD
ATOM     37 HH22 ARG A   8      20.379   4.115   4.071  0.00  0.00    +0.255 HD
ATOM     38  NH1 ARG A   8      22.422   3.498   2.655  0.00  0.00    -0.292 N 
ATOM     39 HH11 ARG A   8      21.689   2.760   2.675  0.00  0.00    +0.255 HD
ATOM     40 HH12 ARG A   8      23.297   3.347   2.114  0.00  0.00    +0.255 HD
ENDBRANCH  31  32
ENDBRANCH  30  31
ENDBRANCH  29  30
ENDBRANCH  15  29
ENDBRANCH  12  15
ENDBRANCH  10  11
ENDBRANCH   8  10
ENDBRANCH   5   6
BRANCH   5  41
ATOM     41  CB  ILE A   6      24.273  12.234  -5.704  0.00  0.00    +0.027 C 
ATOM     42  CG2 ILE A   6      24.248  10.781  -6.153  0.00  0.00    +0.002 C 
BRANCH  41  43
ATOM     43  CG1 ILE A   6      24.141  13.190  -6.871  0.00  0.00    +0.002 C 
ATOM     44  CD1 ILE A   6      22.781  13.255  -7.538  0.00  0.00    +0.000 C 
ENDBRANCH  41  43
ENDBRANCH   5  41
ENDBRANCH   2   5
BRANCH   1  45
ATOM     45  CA  ILE A   5      22.230  15.901  -3.310  0.00  0.00    +0.149 C 
BRANCH  45  47
ATOM     46  C   ASN A   4      22.096  18.022  -4.502  0.00  0.00    +0.241 C 
ATOM     47  N   ILE A   5      21.515  16.920  -4.064  0.00  0.00    -0.297 N 
ATOM     48  H   ILE A   5      20.505  16.774  -4.266  0.00  0.00    +0.150 HD
ATOM     49  O   ASN A   4      23.285  18.260  -4.374  0.00  0.00    -0.273 OA
BRANCH  46  50
ATOM     50  CA  ASN A   4      21.220  19.082  -5.150  0.00  0.00    +0.158 C 
BRANCH  50  53
ATOM     51  C   VAL A   3      21.137  20.651  -3.311  0.00  0.00    +0.241 C 
ATOM     52  O   VAL A   3      20.460  19.837  -2.689  0.00  0.00    -0.273 OA
ATOM     53  N   ASN A   4      21.506  20.390  -4.569  0.00  0.00    -0.297 N 
ATOM     54  H   ASN A   4      21.995  21.116  -5.131  0.00  0.00    +0.150 HD
BRANCH  51  55
ATOM     55  CA  VAL A   3      21.508  21.991  -2.692  0.00  0.00    +0.149 C 
BRANCH  55  57
ATOM     56  C   PRO A   2      20.208  23.592  -1.363  0.00  0.00    +0.241 C 
ATOM     57  N   VAL A   3      20.553  22.352  -1.645  0.00  0.00    -0.297 N 
ATOM     58  H   VAL A   3      20.121  21.585  -1.091  0.00  0.00    +0.150 HD
ATOM     59  O   PRO A   2      20.679  24.609  -1.902  0.00  0.00    -0.273 OA
BRANCH  56  65
ATOM     60  C   THR A   1      17.391  22.327  -1.024  0.00  0.00    +0.244 C 
ATOM     61  N   PRO A   2      18.269  22.683  -0.060  0.00  0.00    -0.272 N 
ATOM     62  CD  PRO A   2      18.340  22.169   1.293  0.00  0.00    +0.094 C 
ATOM     63  CG  PRO A   2      18.897  23.391   2.057  0.00  0.00    +0.024 C 
ATOM     64  CB  PRO A   2      19.855  24.016   1.070  0.00  0.00    +0.031 C 
ATOM     65  CA  PRO A   2      19.184  23.834  -0.278  0.00  0.00    +0.152 C 
ATOM     66  O   THR A   1      17.347  22.970  -2.079  0.00  0.00    -0.273 OA
BRANCH  60  67
ATOM     67  CA  THR A   1      16.455  21.157  -0.836  0.00  0.00    +0.172 C 
BRANCH  67  68
ATOM     68  CB  THR A   1      17.049  19.877  -1.468  0.00  0.00    +0.135 C 
ATOM     69  CG2 THR A   1      17.203  19.953  -2.972  0.00  0.00    +0.034 C 
BRANCH  68  70
ATOM     70  OG1 THR A   1      18.360  19.700  -0.865  0.00  0.00    -0.383 OA
ATOM     71  HG1 THR A   1      18.922  20.490  -1.063  0.00  0.00    +0.210 HD
ENDBRANCH  68  70
ENDBRANCH  67  68
BRANCH  67  72
ATOM     72  N   THR A   1      15.145  21.451  -1.426  0.00  0.00    -0.236 NA
ATOM     73  H   THR A   1      14.878  21.031  -2.339  0.00  0.00    +0.142 HD
ENDBRANCH  67  72
ENDBRANCH  60  67
ENDBRANCH  56  65
ENDBRANCH  55  57
BRANCH  55  74
ATOM     74  CB  VAL A   3      22.931  21.970  -2.103  0.00  0.00    +0.027 C 
ATOM     75  CG2 VAL A   3      23.054  20.858  -1.083  0.00  0.00    +0.002 C 
ATOM     76  CG1 VAL A   3      23.984  21.820  -3.186  0.00  0.00    +0.002 C 
ENDBRANCH  55  74
ENDBRANCH  51  55
ENDBRANCH  50  53
BRANCH  50  77
ATOM     77  CB  ASN A   4      21.475  19.070  -6.663  0.00  0.00    +0.114 C 
BRANCH  77  78
ATOM     78  CG  ASN A   4      20.587  20.002  -7.442  0.00  0.00    +0.222 C 
ATOM     79  OD1 ASN A   4      19.424  20.131  -7.142  0.00  0.00    -0.275 OA
ATOM     80  ND2 ASN A   4      21.130  20.622  -8.455  0.00  0.00    -0.329 N 
ATOM     81 HD21 ASN A   4      22.137  20.478  -8.674  0.00  0.00    +0.145 HD
ATOM     82 HD22 ASN A   4      20.556  21.259  -9.043  0.00  0.00    +0.145 HD
ENDBRANCH  77  78
ENDBRANCH  50  77
ENDBRANCH  46  50
ENDBRANCH  45  47
BRANCH  45  83
ATOM     83  CB  ILE A   5      21.656  15.831  -1.881  0.00  0.00    +0.027 C 
ATOM     84  CG2 ILE A   5      22.190  14.667  -1.094  0.00  0.00    +0.002 C 
BRANCH  83  85
ATOM     85  CG1 ILE A   5      21.832  17.138  -1.101  0.00  0.00    +0.002 C 
ATOM     86  CD1 ILE A   5      20.977  17.175   0.135  0.00  0.00    +0.000 C 
ENDBRANCH  83  85
ENDBRANCH  45  83
ENDBRANCH   1  45
TORSDOF 32
REMARK  Name = ../refined-set-2016/1sdt/1sdt_pocket.pdb
REMARK  235 active torsions:
REMARK  status: ('A' for Active; 'I' for Inactive)
REMARK    1  A    between atoms: _1  and  _3
REMARK    2  A    between atoms: _3  and  _4
REMARK    3  A    between atoms: _3  and  _6
REMARK    4  A    between atoms: _6  and  _7
REMARK    5  A    between atoms: _7  and  _8
REMARK    6  A    between atoms: _8  and  _9
REMARK    7  A    between atoms: _18  and  _20
REMARK    8  A    between atoms: _20  and  _21
REMARK    9  A    between atoms: _20  and  _23
REMARK   10  A    between atoms: _23  and  _24
REMARK   11  A    between atoms: _27  and  _29
REMARK   12  A    between atoms: _29  and  _30
REMARK   13  A    between atoms: _29  and  _32
REMARK   14  A    between atoms: _32  and  _33
REMARK   15  A    between atoms: _36  and  _38
REMARK   16  A    between atoms: _38  and  _39
REMARK   17  A    between atoms: _38  and  _41
REMARK   18  A    between atoms: _41  and  _42
REMARK   19  A    between atoms: _45  and  _47
REMARK   20  A    between atoms: _47  and  _48
REMARK   21  A    between atoms: _47  and  _50
REMARK   22  A    between atoms: _50  and  _51
REMARK   23  A    between atoms: _54  and  _56
REMARK   24  A    between atoms: _56  and  _57
REMARK   25  A    between atoms: _56  and  _59
REMARK   26  A    between atoms: _59  and  _60
REMARK   27  A    between atoms: _63  and  _65
REMARK   28  A    between atoms: _65  and  _66
REMARK   29  A    between atoms: _68  and  _70
REMARK   30  A    between atoms: _70  and  _71
REMARK   31  A    between atoms: _74  and  _76
REMARK   32  A    between atoms: _76  and  _77
REMARK   33  A    between atoms: _76  and  _79
REMARK   34  A    between atoms: _79  and  _80
REMARK   35  A    between atoms: _83  and  _85
REMARK   36  A    between atoms: _85  and  _86
REMARK   37  A    between atoms: _85  and  _88
REMARK   38  A    between atoms: _88  and  _89
REMARK   39  A    between atoms: _92  and  _94
REMARK   40  A    between atoms: _94  and  _95
REMARK   41  A    between atoms: _94  and  _97
REMARK   42  A    between atoms: _97  and  _98
REMARK   43  A    between atoms: _101  and  _103
REMARK   44  A    between atoms: _103  and  _104
REMARK   45  A    between atoms: _103  and  _106
REMARK   46  A    between atoms: _109  and  _111
REMARK   47  A    between atoms: _111  and  _112
REMARK   48  A    between atoms: _111  and  _114
REMARK   49  A    between atoms: _114  and  _115
REMARK   50  A    between atoms: _115  and  _116
REMARK   51  A    between atoms: _116  and  _117
REMARK   52  A    between atoms: _117  and  _118
REMARK   53  A    between atoms: _122  and  _124
REMARK   54  A    between atoms: _124  and  _125
REMARK   55  A    between atoms: _124  and  _127
REMARK   56  A    between atoms: _127  and  _128
REMARK   57  A    between atoms: _128  and  _129
REMARK   58  A    between atoms: _131  and  _133
REMARK   59  A    between atoms: _133  and  _134
REMARK   60  A    between atoms: _133  and  _136
REMARK   61  A    between atoms: _136  and  _137
REMARK   62  A    between atoms: _140  and  _142
REMARK   63  A    between atoms: _142  and  _143
REMARK   64  A    between atoms: _145  and  _147
REMARK   65  A    between atoms: _147  and  _148
REMARK   66  A    between atoms: _150  and  _152
REMARK   67  A    between atoms: _152  and  _153
REMARK   68  A    between atoms: _152  and  _155
REMARK   69  A    between atoms: _155  and  _156
REMARK   70  A    between atoms: _159  and  _161
REMARK   71  A    between atoms: _161  and  _162
REMARK   72  A    between atoms: _164  and  _166
REMARK   73  A    between atoms: _166  and  _167
REMARK   74  A    between atoms: _169  and  _171
REMARK   75  A    between atoms: _171  and  _172
REMARK   76  A    between atoms: _171  and  _174
REMARK   77  A    between atoms: _174  and  _175
REMARK   78  A    between atoms: _181  and  _183
REMARK   79  A    between atoms: _183  and  _184
REMARK   80  A    between atoms: _183  and  _186
REMARK   81  A    between atoms: _186  and  _187
REMARK   82  A    between atoms: _190  and  _192
REMARK   83  A    between atoms: _192  and  _193
REMARK   84  A    between atoms: _192  and  _195
REMARK   85  A    between atoms: _198  and  _200
REMARK   86  A    between atoms: _200  and  _201
REMARK   87  A    between atoms: _200  and  _203
REMARK   88  A    between atoms: _203  and  _204
REMARK   89  A    between atoms: _207  and  _209
REMARK   90  A    between atoms: _209  and  _210
REMARK   91  A    between atoms: _209  and  _212
REMARK   92  A    between atoms: _212  and  _213
REMARK   93  A    between atoms: _217  and  _218
REMARK   94  A    between atoms: _223  and  _225
REMARK   95  A    between atoms: _225  and  _226
REMARK   96  A    between atoms: _225  and  _228
REMARK   97  A    between atoms: _231  and  _233
REMARK   98  A    between atoms: _233  and  _234
REMARK   99  A    between atoms: _233  and  _236
REMARK  100  A    between atoms: _236  and  _237
REMARK  101  A    between atoms: _242  and  _244
REMARK  102  A    between atoms: _244  and  _245
REMARK  103  A    between atoms: _244  and  _247
REMARK  104  A    between atoms: _247  and  _248
REMARK  105  A    between atoms: _251  and  _253
REMARK  106  A    between atoms: _253  and  _254
REMARK  107  A    between atoms: _253  and  _256
REMARK  108  A    between atoms: _256  and  _257
REMARK  109  A    between atoms: _260  and  _262
REMARK  110  A    between atoms: _262  and  _263
REMARK  111  A    between atoms: _265  and  _267
REMARK  112  A    between atoms: _267  and  _268
REMARK  113  A    between atoms: _267  and  _270
REMARK  114  A    between atoms: _270  and  _271
REMARK  115  A    between atoms: _271  and  _272
REMARK  116  A    between atoms: _272  and  _273
REMARK  117  A    between atoms: _282  and  _284
REMARK  118  A    between atoms: _284  and  _285
REMARK  119  A    between atoms: _284  and  _287
REMARK  120  A    between atoms: _288  and  _289
REMARK  121  A    between atoms: _289  and  _290
REMARK  122  A    between atoms: _299  and  _301
REMARK  123  A    between atoms: _301  and  _302
REMARK  124  A    between atoms: _301  and  _304
REMARK  125  A    between atoms: _304  and  _305
REMARK  126  A    between atoms: _308  and  _310
REMARK  127  A    between atoms: _310  and  _311
REMARK  128  A    between atoms: _310  and  _313
REMARK  129  A    between atoms: _313  and  _314
REMARK  130  A    between atoms: _317  and  _319
REMARK  131  A    between atoms: _319  and  _320
REMARK  132  A    between atoms: _319  and  _322
REMARK  133  A    between atoms: _322  and  _323
REMARK  134  A    between atoms: _326  and  _328
REMARK  135  A    between atoms: _328  and  _329
REMARK  136  A    between atoms: _328  and  _331
REMARK  137  A    between atoms: _331  and  _332
REMARK  138  A    between atoms: _335  and  _337
REMARK  139  A    between atoms: _337  and  _338
REMARK  140  A    between atoms: _340  and  _342
REMARK  141  A    between atoms: _342  and  _343
REMARK  142  A    between atoms: _346  and  _348
REMARK  143  A    between atoms: _348  and  _349
REMARK  144  A    between atoms: _348  and  _351
REMARK  145  A    between atoms: _351  and  _352
REMARK  146  A    between atoms: _355  and  _357
REMARK  147  A    between atoms: _357  and  _358
REMARK  148  A    between atoms: _357  and  _360
REMARK  149  A    between atoms: _360  and  _361
REMARK  150  A    between atoms: _364  and  _366
REMARK  151  A    between atoms: _366  and  _367
REMARK  152  A    between atoms: _366  and  _369
REMARK  153  A    between atoms: _369  and  _370
REMARK  154  A    between atoms: _373  and  _375
REMARK  155  A    between atoms: _375  and  _376
REMARK  156  A    between atoms: _375  and  _378
REMARK  157  A    between atoms: _381  and  _383
REMARK  158  A    between atoms: _383  and  _384
REMARK  159  A    between atoms: _383  and  _386
REMARK  160  A    between atoms: _386  and  _387
REMARK  161  A    between atoms: _390  and  _392
REMARK  162  A    between atoms: _392  and  _393
REMARK  163  A    between atoms: _392  and  _395
REMARK  164  A    between atoms: _395  and  _396
REMARK  165  A    between atoms: _396  and  _397
REMARK  166  A    between atoms: _397  and  _398
REMARK  167  A    between atoms: _398  and  _399
REMARK  168  A    between atoms: _403  and  _405
REMARK  169  A    between atoms: _405  and  _406
REMARK  170  A    between atoms: _405  and  _408
REMARK  171  A    between atoms: _408  and  _409
REMARK  172  A    between atoms: _409  and  _410
REMARK  173  A    between atoms: _412  and  _414
REMARK  174  A    between atoms: _414  and  _415
REMARK  175  A    between atoms: _414  and  _417
REMARK  176  A    between atoms: _417  and  _418
REMARK  177  A    between atoms: _421  and  _423
REMARK  178  A    between atoms: _423  and  _424
REMARK  179  A    between atoms: _426  and  _428
REMARK  180  A    between atoms: _428  and  _429
REMARK  181  A    between atoms: _431  and  _433
REMARK  182  A    between atoms: _433  and  _434
REMARK  183  A    between atoms: _433  and  _436
REMARK  184  A    between atoms: _436  and  _437
REMARK  185  A    between atoms: _440  and  _442
REMARK  186  A    between atoms: _442  and  _443
REMARK  187  A    between atoms: _445  and  _447
REMARK  188  A    between atoms: _447  and  _448
REMARK  189  A    between atoms: _450  and  _452
REMARK  190  A    between atoms: _452  and  _453
REMARK  191  A    between atoms: _452  and  _455
REMARK  192  A    between atoms: _455  and  _456
REMARK  193  A    between atoms: _462  and  _464
REMARK  194  A    between atoms: _464  and  _465
REMARK  195  A    between atoms: _464  and  _467
REMARK  196  A    between atoms: _467  and  _468
REMARK  197  A    between atoms: _471  and  _473
REMARK  198  A    between atoms: _473  and  _474
REMARK  199  A    between atoms: _473  and  _476
REMARK  200  A    between atoms: _479  and  _481
REMARK  201  A    between atoms: _481  and  _482
REMARK  202  A    between atoms: _481  and  _484
REMARK  203  A    between atoms: _484  and  _485
REMARK  204  A    between atoms: _488  and  _490
REMARK  205  A    between atoms: _490  and  _491
REMARK  206  A    between atoms: _490  and  _493
REMARK  207  A    between atoms: _493  and  _494
REMARK  208  A    between atoms: _498  and  _499
REMARK  209  A    between atoms: _504  and  _506
REMARK  210  A    between atoms: _506  and  _507
REMARK  211  A    between atoms: _506  and  _509
REMARK  212  A    between atoms: _512  and  _514
REMARK  213  A    between atoms: _514  and  _515
REMARK  214  A    between atoms: _514  and  _517
REMARK  215  A    between atoms: _517  and  _518
REMARK  216  A    between atoms: _523  and  _525
REMARK  217  A    between atoms: _525  and  _526
REMARK  218  A    between atoms: _525  and  _528
REMARK  219  A    between atoms: _528  and  _529
REMARK  220  A    between atoms: _532  and  _534
REMARK  221  A    between atoms: _534  and  _535
REMARK  222  A    between atoms: _534  and  _537
REMARK  223  A    between atoms: _537  and  _538
REMARK  224  A    between atoms: _541  and  _543
REMARK  225  A    between atoms: _543  and  _544
REMARK  226  A    between atoms: _546  and  _548
REMARK  227  A    between atoms: _548  and  _549
REMARK  228  A    between atoms: _548  and  _551
REMARK  229  A    between atoms: _551  and  _552
REMARK  230  A    between atoms: _552  and  _553
REMARK  231  A    between atoms: _553  and  _554
REMARK  232  A    between atoms: _563  and  _565
REMARK  233  A    between atoms: _565  and  _566
REMARK  234  A    between atoms: _565  and  _568
REMARK  235  A    between atoms: _568  and  _569
REMARK                            x       y       z     vdW  Elec       q    Type
REMARK                         _______ _______ _______ _____ _____    ______ ____
ROOT
ATOM      1  O   HOH     1      33.308  21.013  12.611  0.00  0.00    +0.000 OA
ENDROOT
TORSDOF 0
REMARK  Name = ../refined-set-2016/1sdt/1sdt_pocket.pdb
REMARK  235 active torsions:
REMARK  status: ('A' for Active; 'I' for Inactive)
REMARK    1  A    between atoms: _1  and  _3
REMARK    2  A    between atoms: _3  and  _4
REMARK    3  A    between atoms: _3  and  _6
REMARK    4  A    between atoms: _6  and  _7
REMARK    5  A    between atoms: _7  and  _8
REMARK    6  A    between atoms: _8  and  _9
REMARK    7  A    between atoms: _18  and  _20
REMARK    8  A    between atoms: _20  and  _21
REMARK    9  A    between atoms: _20  and  _23
REMARK   10  A    between atoms: _23  and  _24
REMARK   11  A    between atoms: _27  and  _29
REMARK   12  A    between atoms: _29  and  _30
REMARK   13  A    between atoms: _29  and  _32
REMARK   14  A    between atoms: _32  and  _33
REMARK   15  A    between atoms: _36  and  _38
REMARK   16  A    between atoms: _38  and  _39
REMARK   17  A    between atoms: _38  and  _41
REMARK   18  A    between atoms: _41  and  _42
REMARK   19  A    between atoms: _45  and  _47
REMARK   20  A    between atoms: _47  and  _48
REMARK   21  A    between atoms: _47  and  _50
REMARK   22  A    between atoms: _50  and  _51
REMARK   23  A    between atoms: _54  and  _56
REMARK   24  A    between atoms: _56  and  _57
REMARK   25  A    between atoms: _56  and  _59
REMARK   26  A    between atoms: _59  and  _60
REMARK   27  A    between atoms: _63  and  _65
REMARK   28  A    between atoms: _65  and  _66
REMARK   29  A    between atoms: _68  and  _70
REMARK   30  A    between atoms: _70  and  _71
REMARK   31  A    between atoms: _74  and  _76
REMARK   32  A    between atoms: _76  and  _77
REMARK   33  A    between atoms: _76  and  _79
REMARK   34  A    between atoms: _79  and  _80
REMARK   35  A    between atoms: _83  and  _85
REMARK   36  A    between atoms: _85  and  _86
REMARK   37  A    between atoms: _85  and  _88
REMARK   38  A    between atoms: _88  and  _89
REMARK   39  A    between atoms: _92  and  _94
REMARK   40  A    between atoms: _94  and  _95
REMARK   41  A    between atoms: _94  and  _97
REMARK   42  A    between atoms: _97  and  _98
REMARK   43  A    between atoms: _101  and  _103
REMARK   44  A    between atoms: _103  and  _104
REMARK   45  A    between atoms: _103  and  _106
REMARK   46  A    between atoms: _109  and  _111
REMARK   47  A    between atoms: _111  and  _112
REMARK   48  A    between atoms: _111  and  _114
REMARK   49  A    between atoms: _114  and  _115
REMARK   50  A    between atoms: _115  and  _116
REMARK   51  A    between atoms: _116  and  _117
REMARK   52  A    between atoms: _117  and  _118
REMARK   53  A    between atoms: _122  and  _124
REMARK   54  A    between atoms: _124  and  _125
REMARK   55  A    between atoms: _124  and  _127
REMARK   56  A    between atoms: _127  and  _128
REMARK   57  A    between atoms: _128  and  _129
REMARK   58  A    between atoms: _131  and  _133
REMARK   59  A    between atoms: _133  and  _134
REMARK   60  A    between atoms: _133  and  _136
REMARK   61  A    between atoms: _136  and  _137
REMARK   62  A    between atoms: _140  and  _142
REMARK   63  A    between atoms: _142  and  _143
REMARK   64  A    between atoms: _145  and  _147
REMARK   65  A    between atoms: _147  and  _148
REMARK   66  A    between atoms: _150  and  _152
REMARK   67  A    between atoms: _152  and  _153
REMARK   68  A    between atoms: _152  and  _155
REMARK   69  A    between atoms: _155  and  _156
REMARK   70  A    between atoms: _159  and  _161
REMARK   71  A    between atoms: _161  and  _162
REMARK   72  A    between atoms: _164  and  _166
REMARK   73  A    between atoms: _166  and  _167
REMARK   74  A    between atoms: _169  and  _171
REMARK   75  A    between atoms: _171  and  _172
REMARK   76  A    between atoms: _171  and  _174
REMARK   77  A    between atoms: _174  and  _175
REMARK   78  A    between atoms: _181  and  _183
REMARK   79  A    between atoms: _183  and  _184
REMARK   80  A    between atoms: _183  and  _186
REMARK   81  A    between atoms: _186  and  _187
REMARK   82  A    between atoms: _190  and  _192
REMARK   83  A    between atoms: _192  and  _193
REMARK   84  A    between atoms: _192  and  _195
REMARK   85  A    between atoms: _198  and  _200
REMARK   86  A    between atoms: _200  and  _201
REMARK   87  A    between atoms: _200  and  _203
REMARK   88  A    between atoms: _203  and  _204
REMARK   89  A    between atoms: _207  and  _209
REMARK   90  A    between atoms: _209  and  _210
REMARK   91  A    between atoms: _209  and  _212
REMARK   92  A    between atoms: _212  and  _213
REMARK   93  A    between atoms: _217  and  _218
REMARK   94  A    between atoms: _223  and  _225
REMARK   95  A    between atoms: _225  and  _226
REMARK   96  A    between atoms: _225  and  _228
REMARK   97  A    between atoms: _231  and  _233
REMARK   98  A    between atoms: _233  and  _234
REMARK   99  A    between atoms: _233  and  _236
REMARK  100  A    between atoms: _236  and  _237
REMARK  101  A    between atoms: _242  and  _244
REMARK  102  A    between atoms: _244  and  _245
REMARK  103  A    between atoms: _244  and  _247
REMARK  104  A    between atoms: _247  and  _248
REMARK  105  A    between atoms: _251  and  _253
REMARK  106  A    between atoms: _253  and  _254
REMARK  107  A    between atoms: _253  and  _256
REMARK  108  A    between atoms: _256  and  _257
REMARK  109  A    between atoms: _260  and  _262
REMARK  110  A    between atoms: _262  and  _263
REMARK  111  A    between atoms: _265  and  _267
REMARK  112  A    between atoms: _267  and  _268
REMARK  113  A    between atoms: _267  and  _270
REMARK  114  A    between atoms: _270  and  _271
REMARK  115  A    between atoms: _271  and  _272
REMARK  116  A    between atoms: _272  and  _273
REMARK  117  A    between atoms: _282  and  _284
REMARK  118  A    between atoms: _284  and  _285
REMARK  119  A    between atoms: _284  and  _287
REMARK  120  A    between atoms: _288  and  _289
REMARK  121  A    between atoms: _289  and  _290
REMARK  122  A    between atoms: _299  and  _301
REMARK  123  A    between atoms: _301  and  _302
REMARK  124  A    between atoms: _301  and  _304
REMARK  125  A    between atoms: _304  and  _305
REMARK  126  A    between atoms: _308  and  _310
REMARK  127  A    between atoms: _310  and  _311
REMARK  128  A    between atoms: _310  and  _313
REMARK  129  A    between atoms: _313  and  _314
REMARK  130  A    between atoms: _317  and  _319
REMARK  131  A    between atoms: _319  and  _320
REMARK  132  A    between atoms: _319  and  _322
REMARK  133  A    between atoms: _322  and  _323
REMARK  134  A    between atoms: _326  and  _328
REMARK  135  A    between atoms: _328  and  _329
REMARK  136  A    between atoms: _328  and  _331
REMARK  137  A    between atoms: _331  and  _332
REMARK  138  A    between atoms: _335  and  _337
REMARK  139  A    between atoms: _337  and  _338
REMARK  140  A    between atoms: _340  and  _342
REMARK  141  A    between atoms: _342  and  _343
REMARK  142  A    between atoms: _346  and  _348
REMARK  143  A    between atoms: _348  and  _349
REMARK  144  A    between atoms: _348  and  _351
REMARK  145  A    between atoms: _351  and  _352
REMARK  146  A    between atoms: _355  and  _357
REMARK  147  A    between atoms: _357  and  _358
REMARK  148  A    between atoms: _357  and  _360
REMARK  149  A    between atoms: _360  and  _361
REMARK  150  A    between atoms: _364  and  _366
REMARK  151  A    between atoms: _366  and  _367
REMARK  152  A    between atoms: _366  and  _369
REMARK  153  A    between atoms: _369  and  _370
REMARK  154  A    between atoms: _373  and  _375
REMARK  155  A    between atoms: _375  and  _376
REMARK  156  A    between atoms: _375  and  _378
REMARK  157  A    between atoms: _381  and  _383
REMARK  158  A    between atoms: _383  and  _384
REMARK  159  A    between atoms: _383  and  _386
REMARK  160  A    between atoms: _386  and  _387
REMARK  161  A    between atoms: _390  and  _392
REMARK  162  A    between atoms: _392  and  _393
REMARK  163  A    between atoms: _392  and  _395
REMARK  164  A    between atoms: _395  and  _396
REMARK  165  A    between atoms: _396  and  _397
REMARK  166  A    between atoms: _397  and  _398
REMARK  167  A    between atoms: _398  and  _399
REMARK  168  A    between atoms: _403  and  _405
REMARK  169  A    between atoms: _405  and  _406
REMARK  170  A    between atoms: _405  and  _408
REMARK  171  A    between atoms: _408  and  _409
REMARK  172  A    between atoms: _409  and  _410
REMARK  173  A    between atoms: _412  and  _414
REMARK  174  A    between atoms: _414  and  _415
REMARK  175  A    between atoms: _414  and  _417
REMARK  176  A    between atoms: _417  and  _418
REMARK  177  A    between atoms: _421  and  _423
REMARK  178  A    between atoms: _423  and  _424
REMARK  179  A    between atoms: _426  and  _428
REMARK  180  A    between atoms: _428  and  _429
REMARK  181  A    between atoms: _431  and  _433
REMARK  182  A    between atoms: _433  and  _434
REMARK  183  A    between atoms: _433  and  _436
REMARK  184  A    between atoms: _436  and  _437
REMARK  185  A    between atoms: _440  and  _442
REMARK  186  A    between atoms: _442  and  _443
REMARK  187  A    between atoms: _445  and  _447
REMARK  188  A    between atoms: _447  and  _448
REMARK  189  A    between atoms: _450  and  _452
REMARK  190  A    between atoms: _452  and  _453
REMARK  191  A    between atoms: _452  and  _455
REMARK  192  A    between atoms: _455  and  _456
REMARK  193  A    between atoms: _462  and  _464
REMARK  194  A    between atoms: _464  and  _465
REMARK  195  A    between atoms: _464  and  _467
REMARK  196  A    between atoms: _467  and  _468
REMARK  197  A    between atoms: _471  and  _473
REMARK  198  A    between atoms: _473  and  _474
REMARK  199  A    between atoms: _473  and  _476
REMARK  200  A    between atoms: _479  and  _481
REMARK  201  A    between atoms: _481  and  _482
REMARK  202  A    between atoms: _481  and  _484
REMARK  203  A    between atoms: _484  and  _485
REMARK  204  A    between atoms: _488  and  _490
REMARK  205  A    between atoms: _490  and  _491
REMARK  206  A    between atoms: _490  and  _493
REMARK  207  A    between atoms: _493  and  _494
REMARK  208  A    between atoms: _498  and  _499
REMARK  209  A    between atoms: _504  and  _506
REMARK  210  A    between atoms: _506  and  _507
REMARK  211  A    between atoms: _506  and  _509
REMARK  212  A    between atoms: _512  and  _514
REMARK  213  A    between atoms: _514  and  _515
REMARK  214  A    between atoms: _514  and  _517
REMARK  215  A    between atoms: _517  and  _518
REMARK  216  A    between atoms: _523  and  _525
REMARK  217  A    between atoms: _525  and  _526
REMARK  218  A    between atoms: _525  and  _528
REMARK  219  A    between atoms: _528  and  _529
REMARK  220  A    between atoms: _532  and  _534
REMARK  221  A    between atoms: _534  and  _535
REMARK  222  A    between atoms: _534  and  _537
REMARK  223  A    between atoms: _537  and  _538
REMARK  224  A    between atoms: _541  and  _543
REMARK  225  A    between atoms: _543  and  _544
REMARK  226  A    between atoms: _546  and  _548
REMARK  227  A    between atoms: _548  and  _549
REMARK  228  A    between atoms: _548  and  _551
REMARK  229  A    between atoms: _551  and  _552
REMARK  230  A    between atoms: _552  and  _553
REMARK  231  A    between atoms: _553  and  _554
REMARK  232  A    between atoms: _563  and  _565
REMARK  233  A    between atoms: _565  and  _566
REMARK  234  A    between atoms: _565  and  _568
REMARK  235  A    between atoms: _568  and  _569
REMARK                            x       y       z     vdW  Elec       q    Type
REMARK                         _______ _______ _______ _____ _____    ______ ____
ROOT
ATOM      1  O   HOH     1      30.537  18.559   1.720  0.00  0.00    +0.000 OA
ENDROOT
TORSDOF 0
REMARK  Name = ../refined-set-2016/1sdt/1sdt_pocket.pdb
REMARK  235 active torsions:
REMARK  status: ('A' for Active; 'I' for Inactive)
REMARK    1  A    between atoms: _1  and  _3
REMARK    2  A    between atoms: _3  and  _4
REMARK    3  A    between atoms: _3  and  _6
REMARK    4  A    between atoms: _6  and  _7
REMARK    5  A    between atoms: _7  and  _8
REMARK    6  A    between atoms: _8  and  _9
REMARK    7  A    between atoms: _18  and  _20
REMARK    8  A    between atoms: _20  and  _21
REMARK    9  A    between atoms: _20  and  _23
REMARK   10  A    between atoms: _23  and  _24
REMARK   11  A    between atoms: _27  and  _29
REMARK   12  A    between atoms: _29  and  _30
REMARK   13  A    between atoms: _29  and  _32
REMARK   14  A    between atoms: _32  and  _33
REMARK   15  A    between atoms: _36  and  _38
REMARK   16  A    between atoms: _38  and  _39
REMARK   17  A    between atoms: _38  and  _41
REMARK   18  A    between atoms: _41  and  _42
REMARK   19  A    between atoms: _45  and  _47
REMARK   20  A    between atoms: _47  and  _48
REMARK   21  A    between atoms: _47  and  _50
REMARK   22  A    between atoms: _50  and  _51
REMARK   23  A    between atoms: _54  and  _56
REMARK   24  A    between atoms: _56  and  _57
REMARK   25  A    between atoms: _56  and  _59
REMARK   26  A    between atoms: _59  and  _60
REMARK   27  A    between atoms: _63  and  _65
REMARK   28  A    between atoms: _65  and  _66
REMARK   29  A    between atoms: _68  and  _70
REMARK   30  A    between atoms: _70  and  _71
REMARK   31  A    between atoms: _74  and  _76
REMARK   32  A    between atoms: _76  and  _77
REMARK   33  A    between atoms: _76  and  _79
REMARK   34  A    between atoms: _79  and  _80
REMARK   35  A    between atoms: _83  and  _85
REMARK   36  A    between atoms: _85  and  _86
REMARK   37  A    between atoms: _85  and  _88
REMARK   38  A    between atoms: _88  and  _89
REMARK   39  A    between atoms: _92  and  _94
REMARK   40  A    between atoms: _94  and  _95
REMARK   41  A    between atoms: _94  and  _97
REMARK   42  A    between atoms: _97  and  _98
REMARK   43  A    between atoms: _101  and  _103
REMARK   44  A    between atoms: _103  and  _104
REMARK   45  A    between atoms: _103  and  _106
REMARK   46  A    between atoms: _109  and  _111
REMARK   47  A    between atoms: _111  and  _112
REMARK   48  A    between atoms: _111  and  _114
REMARK   49  A    between atoms: _114  and  _115
REMARK   50  A    between atoms: _115  and  _116
REMARK   51  A    between atoms: _116  and  _117
REMARK   52  A    between atoms: _117  and  _118
REMARK   53  A    between atoms: _122  and  _124
REMARK   54  A    between atoms: _124  and  _125
REMARK   55  A    between atoms: _124  and  _127
REMARK   56  A    between atoms: _127  and  _128
REMARK   57  A    between atoms: _128  and  _129
REMARK   58  A    between atoms: _131  and  _133
REMARK   59  A    between atoms: _133  and  _134
REMARK   60  A    between atoms: _133  and  _136
REMARK   61  A    between atoms: _136  and  _137
REMARK   62  A    between atoms: _140  and  _142
REMARK   63  A    between atoms: _142  and  _143
REMARK   64  A    between atoms: _145  and  _147
REMARK   65  A    between atoms: _147  and  _148
REMARK   66  A    between atoms: _150  and  _152
REMARK   67  A    between atoms: _152  and  _153
REMARK   68  A    between atoms: _152  and  _155
REMARK   69  A    between atoms: _155  and  _156
REMARK   70  A    between atoms: _159  and  _161
REMARK   71  A    between atoms: _161  and  _162
REMARK   72  A    between atoms: _164  and  _166
REMARK   73  A    between atoms: _166  and  _167
REMARK   74  A    between atoms: _169  and  _171
REMARK   75  A    between atoms: _171  and  _172
REMARK   76  A    between atoms: _171  and  _174
REMARK   77  A    between atoms: _174  and  _175
REMARK   78  A    between atoms: _181  and  _183
REMARK   79  A    between atoms: _183  and  _184
REMARK   80  A    between atoms: _183  and  _186
REMARK   81  A    between atoms: _186  and  _187
REMARK   82  A    between atoms: _190  and  _192
REMARK   83  A    between atoms: _192  and  _193
REMARK   84  A    between atoms: _192  and  _195
REMARK   85  A    between atoms: _198  and  _200
REMARK   86  A    between atoms: _200  and  _201
REMARK   87  A    between atoms: _200  and  _203
REMARK   88  A    between atoms: _203  and  _204
REMARK   89  A    between atoms: _207  and  _209
REMARK   90  A    between atoms: _209  and  _210
REMARK   91  A    between atoms: _209  and  _212
REMARK   92  A    between atoms: _212  and  _213
REMARK   93  A    between atoms: _217  and  _218
REMARK   94  A    between atoms: _223  and  _225
REMARK   95  A    between atoms: _225  and  _226
REMARK   96  A    between atoms: _225  and  _228
REMARK   97  A    between atoms: _231  and  _233
REMARK   98  A    between atoms: _233  and  _234
REMARK   99  A    between atoms: _233  and  _236
REMARK  100  A    between atoms: _236  and  _237
REMARK  101  A    between atoms: _242  and  _244
REMARK  102  A    between atoms: _244  and  _245
REMARK  103  A    between atoms: _244  and  _247
REMARK  104  A    between atoms: _247  and  _248
REMARK  105  A    between atoms: _251  and  _253
REMARK  106  A    between atoms: _253  and  _254
REMARK  107  A    between atoms: _253  and  _256
REMARK  108  A    between atoms: _256  and  _257
REMARK  109  A    between atoms: _260  and  _262
REMARK  110  A    between atoms: _262  and  _263
REMARK  111  A    between atoms: _265  and  _267
REMARK  112  A    between atoms: _267  and  _268
REMARK  113  A    between atoms: _267  and  _270
REMARK  114  A    between atoms: _270  and  _271
REMARK  115  A    between atoms: _271  and  _272
REMARK  116  A    between atoms: _272  and  _273
REMARK  117  A    between atoms: _282  and  _284
REMARK  118  A    between atoms: _284  and  _285
REMARK  119  A    between atoms: _284  and  _287
REMARK  120  A    between atoms: _288  and  _289
REMARK  121  A    between atoms: _289  and  _290
REMARK  122  A    between atoms: _299  and  _301
REMARK  123  A    between atoms: _301  and  _302
REMARK  124  A    between atoms: _301  and  _304
REMARK  125  A    between atoms: _304  and  _305
REMARK  126  A    between atoms: _308  and  _310
REMARK  127  A    between atoms: _310  and  _311
REMARK  128  A    between atoms: _310  and  _313
REMARK  129  A    between atoms: _313  and  _314
REMARK  130  A    between atoms: _317  and  _319
REMARK  131  A    between atoms: _319  and  _320
REMARK  132  A    between atoms: _319  and  _322
REMARK  133  A    between atoms: _322  and  _323
REMARK  134  A    between atoms: _326  and  _328
REMARK  135  A    between atoms: _328  and  _329
REMARK  136  A    between atoms: _328  and  _331
REMARK  137  A    between atoms: _331  and  _332
REMARK  138  A    between atoms: _335  and  _337
REMARK  139  A    between atoms: _337  and  _338
REMARK  140  A    between atoms: _340  and  _342
REMARK  141  A    between atoms: _342  and  _343
REMARK  142  A    between atoms: _346  and  _348
REMARK  143  A    between atoms: _348  and  _349
REMARK  144  A    between atoms: _348  and  _351
REMARK  145  A    between atoms: _351  and  _352
REMARK  146  A    between atoms: _355  and  _357
REMARK  147  A    between atoms: _357  and  _358
REMARK  148  A    between atoms: _357  and  _360
REMARK  149  A    between atoms: _360  and  _361
REMARK  150  A    between atoms: _364  and  _366
REMARK  151  A    between atoms: _366  and  _367
REMARK  152  A    between atoms: _366  and  _369
REMARK  153  A    between atoms: _369  and  _370
REMARK  154  A    between atoms: _373  and  _375
REMARK  155  A    between atoms: _375  and  _376
REMARK  156  A    between atoms: _375  and  _378
REMARK  157  A    between atoms: _381  and  _383
REMARK  158  A    between atoms: _383  and  _384
REMARK  159  A    between atoms: _383  and  _386
REMARK  160  A    between atoms: _386  and  _387
REMARK  161  A    between atoms: _390  and  _392
REMARK  162  A    between atoms: _392  and  _393
REMARK  163  A    between atoms: _392  and  _395
REMARK  164  A    between atoms: _395  and  _396
REMARK  165  A    between atoms: _396  and  _397
REMARK  166  A    between atoms: _397  and  _398
REMARK  167  A    between atoms: _398  and  _399
REMARK  168  A    between atoms: _403  and  _405
REMARK  169  A    between atoms: _405  and  _406
REMARK  170  A    between atoms: _405  and  _408
REMARK  171  A    between atoms: _408  and  _409
REMARK  172  A    between atoms: _409  and  _410
REMARK  173  A    between atoms: _412  and  _414
REMARK  174  A    between atoms: _414  and  _415
REMARK  175  A    between atoms: _414  and  _417
REMARK  176  A    between atoms: _417  and  _418
REMARK  177  A    between atoms: _421  and  _423
REMARK  178  A    between atoms: _423  and  _424
REMARK  179  A    between atoms: _426  and  _428
REMARK  180  A    between atoms: _428  and  _429
REMARK  181  A    between atoms: _431  and  _433
REMARK  182  A    between atoms: _433  and  _434
REMARK  183  A    between atoms: _433  and  _436
REMARK  184  A    between atoms: _436  and  _437
REMARK  185  A    between atoms: _440  and  _442
REMARK  186  A    between atoms: _442  and  _443
REMARK  187  A    between atoms: _445  and  _447
REMARK  188  A    between atoms: _447  and  _448
REMARK  189  A    between atoms: _450  and  _452
REMARK  190  A    between atoms: _452  and  _453
REMARK  191  A    between atoms: _452  and  _455
REMARK  192  A    between atoms: _455  and  _456
REMARK  193  A    between atoms: _462  and  _464
REMARK  194  A    between atoms: _464  and  _465
REMARK  195  A    between atoms: _464  and  _467
REMARK  196  A    between atoms: _467  and  _468
REMARK  197  A    between atoms: _471  and  _473
REMARK  198  A    between atoms: _473  and  _474
REMARK  199  A    between atoms: _473  and  _476
REMARK  200  A    between atoms: _479  and  _481
REMARK  201  A    between atoms: _481  and  _482
REMARK  202  A    between atoms: _481  and  _484
REMARK  203  A    between atoms: _484  and  _485
REMARK  204  A    between atoms: _488  and  _490
REMARK  205  A    between atoms: _490  and  _491
REMARK  206  A    between atoms: _490  and  _493
REMARK  207  A    between atoms: _493  and  _494
REMARK  208  A    between atoms: _498  and  _499
REMARK  209  A    between atoms: _504  and  _506
REMARK  210  A    between atoms: _506  and  _507
REMARK  211  A    between atoms: _506  and  _509
REMARK  212  A    between atoms: _512  and  _514
REMARK  213  A    between atoms: _514  and  _515
REMARK  214  A    between atoms: _514  and  _517
REMARK  215  A    between atoms: _517  and  _518
REMARK  216  A    between atoms: _523  and  _525
REMARK  217  A    between atoms: _525  and  _526
REMARK  218  A    between atoms: _525  and  _528
REMARK  219  A    between atoms: _528  and  _529
REMARK  220  A    between atoms: _532  and  _534
REMARK  221  A    between atoms: _534  and  _535
REMARK  222  A    between atoms: _534  and  _537
REMARK  223  A    between atoms: _537  and  _538
REMARK  224  A    between atoms: _541  and  _543
REMARK  225  A    between atoms: _543  and  _544
REMARK  226  A    between atoms: _546  and  _548
REMARK  227  A    between atoms: _548  and  _549
REMARK  228  A    between atoms: _548  and  _551
REMARK  229  A    between atoms: _551  and  _552
REMARK  230  A    between atoms: _552  and  _553
REMARK  231  A    between atoms: _553  and  _554
REMARK  232  A    between atoms: _563  and  _565
REMARK  233  A    between atoms: _565  and  _566
REMARK  234  A    between atoms: _565  and  _568
REMARK  235  A    between atoms: _568  and  _569
REMARK                            x       y       z     vdW  Elec       q    Type
REMARK                         _______ _______ _______ _____ _____    ______ ____
ROOT
ATOM      1  O   HOH     1      27.490  21.019   5.117  0.00  0.00    +0.000 OA
ENDROOT
TORSDOF 0
REMARK  Name = ../refined-set-2016/1sdt/1sdt_pocket.pdb
REMARK  235 active torsions:
REMARK  status: ('A' for Active; 'I' for Inactive)
REMARK    1  A    between atoms: _1  and  _3
REMARK    2  A    between atoms: _3  and  _4
REMARK    3  A    between atoms: _3  and  _6
REMARK    4  A    between atoms: _6  and  _7
REMARK    5  A    between atoms: _7  and  _8
REMARK    6  A    between atoms: _8  and  _9
REMARK    7  A    between atoms: _18  and  _20
REMARK    8  A    between atoms: _20  and  _21
REMARK    9  A    between atoms: _20  and  _23
REMARK   10  A    between atoms: _23  and  _24
REMARK   11  A    between atoms: _27  and  _29
REMARK   12  A    between atoms: _29  and  _30
REMARK   13  A    between atoms: _29  and  _32
REMARK   14  A    between atoms: _32  and  _33
REMARK   15  A    between atoms: _36  and  _38
REMARK   16  A    between atoms: _38  and  _39
REMARK   17  A    between atoms: _38  and  _41
REMARK   18  A    between atoms: _41  and  _42
REMARK   19  A    between atoms: _45  and  _47
REMARK   20  A    between atoms: _47  and  _48
REMARK   21  A    between atoms: _47  and  _50
REMARK   22  A    between atoms: _50  and  _51
REMARK   23  A    between atoms: _54  and  _56
REMARK   24  A    between atoms: _56  and  _57
REMARK   25  A    between atoms: _56  and  _59
REMARK   26  A    between atoms: _59  and  _60
REMARK   27  A    between atoms: _63  and  _65
REMARK   28  A    between atoms: _65  and  _66
REMARK   29  A    between atoms: _68  and  _70
REMARK   30  A    between atoms: _70  and  _71
REMARK   31  A    between atoms: _74  and  _76
REMARK   32  A    between atoms: _76  and  _77
REMARK   33  A    between atoms: _76  and  _79
REMARK   34  A    between atoms: _79  and  _80
REMARK   35  A    between atoms: _83  and  _85
REMARK   36  A    between atoms: _85  and  _86
REMARK   37  A    between atoms: _85  and  _88
REMARK   38  A    between atoms: _88  and  _89
REMARK   39  A    between atoms: _92  and  _94
REMARK   40  A    between atoms: _94  and  _95
REMARK   41  A    between atoms: _94  and  _97
REMARK   42  A    between atoms: _97  and  _98
REMARK   43  A    between atoms: _101  and  _103
REMARK   44  A    between atoms: _103  and  _104
REMARK   45  A    between atoms: _103  and  _106
REMARK   46  A    between atoms: _109  and  _111
REMARK   47  A    between atoms: _111  and  _112
REMARK   48  A    between atoms: _111  and  _114
REMARK   49  A    between atoms: _114  and  _115
REMARK   50  A    between atoms: _115  and  _116
REMARK   51  A    between atoms: _116  and  _117
REMARK   52  A    between atoms: _117  and  _118
REMARK   53  A    between atoms: _122  and  _124
REMARK   54  A    between atoms: _124  and  _125
REMARK   55  A    between atoms: _124  and  _127
REMARK   56  A    between atoms: _127  and  _128
REMARK   57  A    between atoms: _128  and  _129
REMARK   58  A    between atoms: _131  and  _133
REMARK   59  A    between atoms: _133  and  _134
REMARK   60  A    between atoms: _133  and  _136
REMARK   61  A    between atoms: _136  and  _137
REMARK   62  A    between atoms: _140  and  _142
REMARK   63  A    between atoms: _142  and  _143
REMARK   64  A    between atoms: _145  and  _147
REMARK   65  A    between atoms: _147  and  _148
REMARK   66  A    between atoms: _150  and  _152
REMARK   67  A    between atoms: _152  and  _153
REMARK   68  A    between atoms: _152  and  _155
REMARK   69  A    between atoms: _155  and  _156
REMARK   70  A    between atoms: _159  and  _161
REMARK   71  A    between atoms: _161  and  _162
REMARK   72  A    between atoms: _164  and  _166
REMARK   73  A    between atoms: _166  and  _167
REMARK   74  A    between atoms: _169  and  _171
REMARK   75  A    between atoms: _171  and  _172
REMARK   76  A    between atoms: _171  and  _174
REMARK   77  A    between atoms: _174  and  _175
REMARK   78  A    between atoms: _181  and  _183
REMARK   79  A    between atoms: _183  and  _184
REMARK   80  A    between atoms: _183  and  _186
REMARK   81  A    between atoms: _186  and  _187
REMARK   82  A    between atoms: _190  and  _192
REMARK   83  A    between atoms: _192  and  _193
REMARK   84  A    between atoms: _192  and  _195
REMARK   85  A    between atoms: _198  and  _200
REMARK   86  A    between atoms: _200  and  _201
REMARK   87  A    between atoms: _200  and  _203
REMARK   88  A    between atoms: _203  and  _204
REMARK   89  A    between atoms: _207  and  _209
REMARK   90  A    between atoms: _209  and  _210
REMARK   91  A    between atoms: _209  and  _212
REMARK   92  A    between atoms: _212  and  _213
REMARK   93  A    between atoms: _217  and  _218
REMARK   94  A    between atoms: _223  and  _225
REMARK   95  A    between atoms: _225  and  _226
REMARK   96  A    between atoms: _225  and  _228
REMARK   97  A    between atoms: _231  and  _233
REMARK   98  A    between atoms: _233  and  _234
REMARK   99  A    between atoms: _233  and  _236
REMARK  100  A    between atoms: _236  and  _237
REMARK  101  A    between atoms: _242  and  _244
REMARK  102  A    between atoms: _244  and  _245
REMARK  103  A    between atoms: _244  and  _247
REMARK  104  A    between atoms: _247  and  _248
REMARK  105  A    between atoms: _251  and  _253
REMARK  106  A    between atoms: _253  and  _254
REMARK  107  A    between atoms: _253  and  _256
REMARK  108  A    between atoms: _256  and  _257
REMARK  109  A    between atoms: _260  and  _262
REMARK  110  A    between atoms: _262  and  _263
REMARK  111  A    between atoms: _265  and  _267
REMARK  112  A    between atoms: _267  and  _268
REMARK  113  A    between atoms: _267  and  _270
REMARK  114  A    between atoms: _270  and  _271
REMARK  115  A    between atoms: _271  and  _272
REMARK  116  A    between atoms: _272  and  _273
REMARK  117  A    between atoms: _282  and  _284
REMARK  118  A    between atoms: _284  and  _285
REMARK  119  A    between atoms: _284  and  _287
REMARK  120  A    between atoms: _288  and  _289
REMARK  121  A    between atoms: _289  and  _290
REMARK  122  A    between atoms: _299  and  _301
REMARK  123  A    between atoms: _301  and  _302
REMARK  124  A    between atoms: _301  and  _304
REMARK  125  A    between atoms: _304  and  _305
REMARK  126  A    between atoms: _308  and  _310
REMARK  127  A    between atoms: _310  and  _311
REMARK  128  A    between atoms: _310  and  _313
REMARK  129  A    between atoms: _313  and  _314
REMARK  130  A    between atoms: _317  and  _319
REMARK  131  A    between atoms: _319  and  _320
REMARK  132  A    between atoms: _319  and  _322
REMARK  133  A    between atoms: _322  and  _323
REMARK  134  A    between atoms: _326  and  _328
REMARK  135  A    between atoms: _328  and  _329
REMARK  136  A    between atoms: _328  and  _331
REMARK  137  A    between atoms: _331  and  _332
REMARK  138  A    between atoms: _335  and  _337
REMARK  139  A    between atoms: _337  and  _338
REMARK  140  A    between atoms: _340  and  _342
REMARK  141  A    between atoms: _342  and  _343
REMARK  142  A    between atoms: _346  and  _348
REMARK  143  A    between atoms: _348  and  _349
REMARK  144  A    between atoms: _348  and  _351
REMARK  145  A    between atoms: _351  and  _352
REMARK  146  A    between atoms: _355  and  _357
REMARK  147  A    between atoms: _357  and  _358
REMARK  148  A    between atoms: _357  and  _360
REMARK  149  A    between atoms: _360  and  _361
REMARK  150  A    between atoms: _364  and  _366
REMARK  151  A    between atoms: _366  and  _367
REMARK  152  A    between atoms: _366  and  _369
REMARK  153  A    between atoms: _369  and  _370
REMARK  154  A    between atoms: _373  and  _375
REMARK  155  A    between atoms: _375  and  _376
REMARK  156  A    between atoms: _375  and  _378
REMARK  157  A    between atoms: _381  and  _383
REMARK  158  A    between atoms: _383  and  _384
REMARK  159  A    between atoms: _383  and  _386
REMARK  160  A    between atoms: _386  and  _387
REMARK  161  A    between atoms: _390  and  _392
REMARK  162  A    between atoms: _392  and  _393
REMARK  163  A    between atoms: _392  and  _395
REMARK  164  A    between atoms: _395  and  _396
REMARK  165  A    between atoms: _396  and  _397
REMARK  166  A    between atoms: _397  and  _398
REMARK  167  A    between atoms: _398  and  _399
REMARK  168  A    between atoms: _403  and  _405
REMARK  169  A    between atoms: _405  and  _406
REMARK  170  A    between atoms: _405  and  _408
REMARK  171  A    between atoms: _408  and  _409
REMARK  172  A    between atoms: _409  and  _410
REMARK  173  A    between atoms: _412  and  _414
REMARK  174  A    between atoms: _414  and  _415
REMARK  175  A    between atoms: _414  and  _417
REMARK  176  A    between atoms: _417  and  _418
REMARK  177  A    between atoms: _421  and  _423
REMARK  178  A    between atoms: _423  and  _424
REMARK  179  A    between atoms: _426  and  _428
REMARK  180  A    between atoms: _428  and  _429
REMARK  181  A    between atoms: _431  and  _433
REMARK  182  A    between atoms: _433  and  _434
REMARK  183  A    between atoms: _433  and  _436
REMARK  184  A    between atoms: _436  and  _437
REMARK  185  A    between atoms: _440  and  _442
REMARK  186  A    between atoms: _442  and  _443
REMARK  187  A    between atoms: _445  and  _447
REMARK  188  A    between atoms: _447  and  _448
REMARK  189  A    between atoms: _450  and  _452
REMARK  190  A    between atoms: _452  and  _453
REMARK  191  A    between atoms: _452  and  _455
REMARK  192  A    between atoms: _455  and  _456
REMARK  193  A    between atoms: _462  and  _464
REMARK  194  A    between atoms: _464  and  _465
REMARK  195  A    between atoms: _464  and  _467
REMARK  196  A    between atoms: _467  and  _468
REMARK  197  A    between atoms: _471  and  _473
REMARK  198  A    between atoms: _473  and  _474
REMARK  199  A    between atoms: _473  and  _476
REMARK  200  A    between atoms: _479  and  _481
REMARK  201  A    between atoms: _481  and  _482
REMARK  202  A    between atoms: _481  and  _484
REMARK  203  A    between atoms: _484  and  _485
REMARK  204  A    between atoms: _488  and  _490
REMARK  205  A    between atoms: _490  and  _491
REMARK  206  A    between atoms: _490  and  _493
REMARK  207  A    between atoms: _493  and  _494
REMARK  208  A    between atoms: _498  and  _499
REMARK  209  A    between atoms: _504  and  _506
REMARK  210  A    between atoms: _506  and  _507
REMARK  211  A    between atoms: _506  and  _509
REMARK  212  A    between atoms: _512  and  _514
REMARK  213  A    between atoms: _514  and  _515
REMARK  214  A    between atoms: _514  and  _517
REMARK  215  A    between atoms: _517  and  _518
REMARK  216  A    between atoms: _523  and  _525
REMARK  217  A    between atoms: _525  and  _526
REMARK  218  A    between atoms: _525  and  _528
REMARK  219  A    between atoms: _528  and  _529
REMARK  220  A    between atoms: _532  and  _534
REMARK  221  A    between atoms: _534  and  _535
REMARK  222  A    between atoms: _534  and  _537
REMARK  223  A    between atoms: _537  and  _538
REMARK  224  A    between atoms: _541  and  _543
REMARK  225  A    between atoms: _543  and  _544
REMARK  226  A    between atoms: _546  and  _548
REMARK  227  A    between atoms: _548  and  _549
REMARK  228  A    between atoms: _548  and  _551
REMARK  229  A    between atoms: _551  and  _552
REMARK  230  A    between atoms: _552  and  _553
REMARK  231  A    between atoms: _553  and  _554
REMARK  232  A    between atoms: _563  and  _565
REMARK  233  A    between atoms: _565  and  _566
REMARK  234  A    between atoms: _565  and  _568
REMARK  235  A    between atoms: _568  and  _569
REMARK                            x       y       z     vdW  Elec       q    Type
REMARK                         _______ _______ _______ _____ _____    ______ ____
ROOT
ATOM      1  O   HOH     1      14.701  23.649   4.539  0.00  0.00    +0.000 OA
ENDROOT
TORSDOF 0
REMARK  Name = ../refined-set-2016/1sdt/1sdt_pocket.pdb
REMARK  235 active torsions:
REMARK  status: ('A' for Active; 'I' for Inactive)
REMARK    1  A    between atoms: _1  and  _3
REMARK    2  A    between atoms: _3  and  _4
REMARK    3  A    between atoms: _3  and  _6
REMARK    4  A    between atoms: _6  and  _7
REMARK    5  A    between atoms: _7  and  _8
REMARK    6  A    between atoms: _8  and  _9
REMARK    7  A    between atoms: _18  and  _20
REMARK    8  A    between atoms: _20  and  _21
REMARK    9  A    between atoms: _20  and  _23
REMARK   10  A    between atoms: _23  and  _24
REMARK   11  A    between atoms: _27  and  _29
REMARK   12  A    between atoms: _29  and  _30
REMARK   13  A    between atoms: _29  and  _32
REMARK   14  A    between atoms: _32  and  _33
REMARK   15  A    between atoms: _36  and  _38
REMARK   16  A    between atoms: _38  and  _39
REMARK   17  A    between atoms: _38  and  _41
REMARK   18  A    between atoms: _41  and  _42
REMARK   19  A    between atoms: _45  and  _47
REMARK   20  A    between atoms: _47  and  _48
REMARK   21  A    between atoms: _47  and  _50
REMARK   22  A    between atoms: _50  and  _51
REMARK   23  A    between atoms: _54  and  _56
REMARK   24  A    between atoms: _56  and  _57
REMARK   25  A    between atoms: _56  and  _59
REMARK   26  A    between atoms: _59  and  _60
REMARK   27  A    between atoms: _63  and  _65
REMARK   28  A    between atoms: _65  and  _66
REMARK   29  A    between atoms: _68  and  _70
REMARK   30  A    between atoms: _70  and  _71
REMARK   31  A    between atoms: _74  and  _76
REMARK   32  A    between atoms: _76  and  _77
REMARK   33  A    between atoms: _76  and  _79
REMARK   34  A    between atoms: _79  and  _80
REMARK   35  A    between atoms: _83  and  _85
REMARK   36  A    between atoms: _85  and  _86
REMARK   37  A    between atoms: _85  and  _88
REMARK   38  A    between atoms: _88  and  _89
REMARK   39  A    between atoms: _92  and  _94
REMARK   40  A    between atoms: _94  and  _95
REMARK   41  A    between atoms: _94  and  _97
REMARK   42  A    between atoms: _97  and  _98
REMARK   43  A    between atoms: _101  and  _103
REMARK   44  A    between atoms: _103  and  _104
REMARK   45  A    between atoms: _103  and  _106
REMARK   46  A    between atoms: _109  and  _111
REMARK   47  A    between atoms: _111  and  _112
REMARK   48  A    between atoms: _111  and  _114
REMARK   49  A    between atoms: _114  and  _115
REMARK   50  A    between atoms: _115  and  _116
REMARK   51  A    between atoms: _116  and  _117
REMARK   52  A    between atoms: _117  and  _118
REMARK   53  A    between atoms: _122  and  _124
REMARK   54  A    between atoms: _124  and  _125
REMARK   55  A    between atoms: _124  and  _127
REMARK   56  A    between atoms: _127  and  _128
REMARK   57  A    between atoms: _128  and  _129
REMARK   58  A    between atoms: _131  and  _133
REMARK   59  A    between atoms: _133  and  _134
REMARK   60  A    between atoms: _133  and  _136
REMARK   61  A    between atoms: _136  and  _137
REMARK   62  A    between atoms: _140  and  _142
REMARK   63  A    between atoms: _142  and  _143
REMARK   64  A    between atoms: _145  and  _147
REMARK   65  A    between atoms: _147  and  _148
REMARK   66  A    between atoms: _150  and  _152
REMARK   67  A    between atoms: _152  and  _153
REMARK   68  A    between atoms: _152  and  _155
REMARK   69  A    between atoms: _155  and  _156
REMARK   70  A    between atoms: _159  and  _161
REMARK   71  A    between atoms: _161  and  _162
REMARK   72  A    between atoms: _164  and  _166
REMARK   73  A    between atoms: _166  and  _167
REMARK   74  A    between atoms: _169  and  _171
REMARK   75  A    between atoms: _171  and  _172
REMARK   76  A    between atoms: _171  and  _174
REMARK   77  A    between atoms: _174  and  _175
REMARK   78  A    between atoms: _181  and  _183
REMARK   79  A    between atoms: _183  and  _184
REMARK   80  A    between atoms: _183  and  _186
REMARK   81  A    between atoms: _186  and  _187
REMARK   82  A    between atoms: _190  and  _192
REMARK   83  A    between atoms: _192  and  _193
REMARK   84  A    between atoms: _192  and  _195
REMARK   85  A    between atoms: _198  and  _200
REMARK   86  A    between atoms: _200  and  _201
REMARK   87  A    between atoms: _200  and  _203
REMARK   88  A    between atoms: _203  and  _204
REMARK   89  A    between atoms: _207  and  _209
REMARK   90  A    between atoms: _209  and  _210
REMARK   91  A    between atoms: _209  and  _212
REMARK   92  A    between atoms: _212  and  _213
REMARK   93  A    between atoms: _217  and  _218
REMARK   94  A    between atoms: _223  and  _225
REMARK   95  A    between atoms: _225  and  _226
REMARK   96  A    between atoms: _225  and  _228
REMARK   97  A    between atoms: _231  and  _233
REMARK   98  A    between atoms: _233  and  _234
REMARK   99  A    between atoms: _233  and  _236
REMARK  100  A    between atoms: _236  and  _237
REMARK  101  A    between atoms: _242  and  _244
REMARK  102  A    between atoms: _244  and  _245
REMARK  103  A    between atoms: _244  and  _247
REMARK  104  A    between atoms: _247  and  _248
REMARK  105  A    between atoms: _251  and  _253
REMARK  106  A    between atoms: _253  and  _254
REMARK  107  A    between atoms: _253  and  _256
REMARK  108  A    between atoms: _256  and  _257
REMARK  109  A    between atoms: _260  and  _262
REMARK  110  A    between atoms: _262  and  _263
REMARK  111  A    between atoms: _265  and  _267
REMARK  112  A    between atoms: _267  and  _268
REMARK  113  A    between atoms: _267  and  _270
REMARK  114  A    between atoms: _270  and  _271
REMARK  115  A    between atoms: _271  and  _272
REMARK  116  A    between atoms: _272  and  _273
REMARK  117  A    between atoms: _282  and  _284
REMARK  118  A    between atoms: _284  and  _285
REMARK  119  A    between atoms: _284  and  _287
REMARK  120  A    between atoms: _288  and  _289
REMARK  121  A    between atoms: _289  and  _290
REMARK  122  A    between atoms: _299  and  _301
REMARK  123  A    between atoms: _301  and  _302
REMARK  124  A    between atoms: _301  and  _304
REMARK  125  A    between atoms: _304  and  _305
REMARK  126  A    between atoms: _308  and  _310
REMARK  127  A    between atoms: _310  and  _311
REMARK  128  A    between atoms: _310  and  _313
REMARK  129  A    between atoms: _313  and  _314
REMARK  130  A    between atoms: _317  and  _319
REMARK  131  A    between atoms: _319  and  _320
REMARK  132  A    between atoms: _319  and  _322
REMARK  133  A    between atoms: _322  and  _323
REMARK  134  A    between atoms: _326  and  _328
REMARK  135  A    between atoms: _328  and  _329
REMARK  136  A    between atoms: _328  and  _331
REMARK  137  A    between atoms: _331  and  _332
REMARK  138  A    between atoms: _335  and  _337
REMARK  139  A    between atoms: _337  and  _338
REMARK  140  A    between atoms: _340  and  _342
REMARK  141  A    between atoms: _342  and  _343
REMARK  142  A    between atoms: _346  and  _348
REMARK  143  A    between atoms: _348  and  _349
REMARK  144  A    between atoms: _348  and  _351
REMARK  145  A    between atoms: _351  and  _352
REMARK  146  A    between atoms: _355  and  _357
REMARK  147  A    between atoms: _357  and  _358
REMARK  148  A    between atoms: _357  and  _360
REMARK  149  A    between atoms: _360  and  _361
REMARK  150  A    between atoms: _364  and  _366
REMARK  151  A    between atoms: _366  and  _367
REMARK  152  A    between atoms: _366  and  _369
REMARK  153  A    between atoms: _369  and  _370
REMARK  154  A    between atoms: _373  and  _375
REMARK  155  A    between atoms: _375  and  _376
REMARK  156  A    between atoms: _375  and  _378
REMARK  157  A    between atoms: _381  and  _383
REMARK  158  A    between atoms: _383  and  _384
REMARK  159  A    between atoms: _383  and  _386
REMARK  160  A    between atoms: _386  and  _387
REMARK  161  A    between atoms: _390  and  _392
REMARK  162  A    between atoms: _392  and  _393
REMARK  163  A    between atoms: _392  and  _395
REMARK  164  A    between atoms: _395  and  _396
REMARK  165  A    between atoms: _396  and  _397
REMARK  166  A    between atoms: _397  and  _398
REMARK  167  A    between atoms: _398  and  _399
REMARK  168  A    between atoms: _403  and  _405
REMARK  169  A    between atoms: _405  and  _406
REMARK  170  A    between atoms: _405  and  _408
REMARK  171  A    between atoms: _408  and  _409
REMARK  172  A    between atoms: _409  and  _410
REMARK  173  A    between atoms: _412  and  _414
REMARK  174  A    between atoms: _414  and  _415
REMARK  175  A    between atoms: _414  and  _417
REMARK  176  A    between atoms: _417  and  _418
REMARK  177  A    between atoms: _421  and  _423
REMARK  178  A    between atoms: _423  and  _424
REMARK  179  A    between atoms: _426  and  _428
REMARK  180  A    between atoms: _428  and  _429
REMARK  181  A    between atoms: _431  and  _433
REMARK  182  A    between atoms: _433  and  _434
REMARK  183  A    between atoms: _433  and  _436
REMARK  184  A    between atoms: _436  and  _437
REMARK  185  A    between atoms: _440  and  _442
REMARK  186  A    between atoms: _442  and  _443
REMARK  187  A    between atoms: _445  and  _447
REMARK  188  A    between atoms: _447  and  _448
REMARK  189  A    between atoms: _450  and  _452
REMARK  190  A    between atoms: _452  and  _453
REMARK  191  A    between atoms: _452  and  _455
REMARK  192  A    between atoms: _455  and  _456
REMARK  193  A    between atoms: _462  and  _464
REMARK  194  A    between atoms: _464  and  _465
REMARK  195  A    between atoms: _464  and  _467
REMARK  196  A    between atoms: _467  and  _468
REMARK  197  A    between atoms: _471  and  _473
REMARK  198  A    between atoms: _473  and  _474
REMARK  199  A    between atoms: _473  and  _476
REMARK  200  A    between atoms: _479  and  _481
REMARK  201  A    between atoms: _481  and  _482
REMARK  202  A    between atoms: _481  and  _484
REMARK  203  A    between atoms: _484  and  _485
REMARK  204  A    between atoms: _488  and  _490
REMARK  205  A    between atoms: _490  and  _491
REMARK  206  A    between atoms: _490  and  _493
REMARK  207  A    between atoms: _493  and  _494
REMARK  208  A    between atoms: _498  and  _499
REMARK  209  A    between atoms: _504  and  _506
REMARK  210  A    between atoms: _506  and  _507
REMARK  211  A    between atoms: _506  and  _509
REMARK  212  A    between atoms: _512  and  _514
REMARK  213  A    between atoms: _514  and  _515
REMARK  214  A    between atoms: _514  and  _517
REMARK  215  A    between atoms: _517  and  _518
REMARK  216  A    between atoms: _523  and  _525
REMARK  217  A    between atoms: _525  and  _526
REMARK  218  A    between atoms: _525  and  _528
REMARK  219  A    between atoms: _528  and  _529
REMARK  220  A    between atoms: _532  and  _534
REMARK  221  A    between atoms: _534  and  _535
REMARK  222  A    between atoms: _534  and  _537
REMARK  223  A    between atoms: _537  and  _538
REMARK  224  A    between atoms: _541  and  _543
REMARK  225  A    between atoms: _543  and  _544
REMARK  226  A    between atoms: _546  and  _548
REMARK  227  A    between atoms: _548  and  _549
REMARK  228  A    between atoms: _548  and  _551
REMARK  229  A    between atoms: _551  and  _552
REMARK  230  A    between atoms: _552  and  _553
REMARK  231  A    between atoms: _553  and  _554
REMARK  232  A    between atoms: _563  and  _565
REMARK  233  A    between atoms: _565  and  _566
REMARK  234  A    between atoms: _565  and  _568
REMARK  235  A    between atoms: _568  and  _569
REMARK                            x       y       z     vdW  Elec       q    Type
REMARK                         _______ _______ _______ _____ _____    ______ ____
ROOT
ATOM      1  O   HOH     1      23.265   6.992  14.414  0.00  0.00    +0.000 OA
ENDROOT
TORSDOF 0
REMARK  Name = ../refined-set-2016/1sdt/1sdt_pocket.pdb
REMARK  235 active torsions:
REMARK  status: ('A' for Active; 'I' for Inactive)
REMARK    1  A    between atoms: _1  and  _3
REMARK    2  A    between atoms: _3  and  _4
REMARK    3  A    between atoms: _3  and  _6
REMARK    4  A    between atoms: _6  and  _7
REMARK    5  A    between atoms: _7  and  _8
REMARK    6  A    between atoms: _8  and  _9
REMARK    7  A    between atoms: _18  and  _20
REMARK    8  A    between atoms: _20  and  _21
REMARK    9  A    between atoms: _20  and  _23
REMARK   10  A    between atoms: _23  and  _24
REMARK   11  A    between atoms: _27  and  _29
REMARK   12  A    between atoms: _29  and  _30
REMARK   13  A    between atoms: _29  and  _32
REMARK   14  A    between atoms: _32  and  _33
REMARK   15  A    between atoms: _36  and  _38
REMARK   16  A    between atoms: _38  and  _39
REMARK   17  A    between atoms: _38  and  _41
REMARK   18  A    between atoms: _41  and  _42
REMARK   19  A    between atoms: _45  and  _47
REMARK   20  A    between atoms: _47  and  _48
REMARK   21  A    between atoms: _47  and  _50
REMARK   22  A    between atoms: _50  and  _51
REMARK   23  A    between atoms: _54  and  _56
REMARK   24  A    between atoms: _56  and  _57
REMARK   25  A    between atoms: _56  and  _59
REMARK   26  A    between atoms: _59  and  _60
REMARK   27  A    between atoms: _63  and  _65
REMARK   28  A    between atoms: _65  and  _66
REMARK   29  A    between atoms: _68  and  _70
REMARK   30  A    between atoms: _70  and  _71
REMARK   31  A    between atoms: _74  and  _76
REMARK   32  A    between atoms: _76  and  _77
REMARK   33  A    between atoms: _76  and  _79
REMARK   34  A    between atoms: _79  and  _80
REMARK   35  A    between atoms: _83  and  _85
REMARK   36  A    between atoms: _85  and  _86
REMARK   37  A    between atoms: _85  and  _88
REMARK   38  A    between atoms: _88  and  _89
REMARK   39  A    between atoms: _92  and  _94
REMARK   40  A    between atoms: _94  and  _95
REMARK   41  A    between atoms: _94  and  _97
REMARK   42  A    between atoms: _97  and  _98
REMARK   43  A    between atoms: _101  and  _103
REMARK   44  A    between atoms: _103  and  _104
REMARK   45  A    between atoms: _103  and  _106
REMARK   46  A    between atoms: _109  and  _111
REMARK   47  A    between atoms: _111  and  _112
REMARK   48  A    between atoms: _111  and  _114
REMARK   49  A    between atoms: _114  and  _115
REMARK   50  A    between atoms: _115  and  _116
REMARK   51  A    between atoms: _116  and  _117
REMARK   52  A    between atoms: _117  and  _118
REMARK   53  A    between atoms: _122  and  _124
REMARK   54  A    between atoms: _124  and  _125
REMARK   55  A    between atoms: _124  and  _127
REMARK   56  A    between atoms: _127  and  _128
REMARK   57  A    between atoms: _128  and  _129
REMARK   58  A    between atoms: _131  and  _133
REMARK   59  A    between atoms: _133  and  _134
REMARK   60  A    between atoms: _133  and  _136
REMARK   61  A    between atoms: _136  and  _137
REMARK   62  A    between atoms: _140  and  _142
REMARK   63  A    between atoms: _142  and  _143
REMARK   64  A    between atoms: _145  and  _147
REMARK   65  A    between atoms: _147  and  _148
REMARK   66  A    between atoms: _150  and  _152
REMARK   67  A    between atoms: _152  and  _153
REMARK   68  A    between atoms: _152  and  _155
REMARK   69  A    between atoms: _155  and  _156
REMARK   70  A    between atoms: _159  and  _161
REMARK   71  A    between atoms: _161  and  _162
REMARK   72  A    between atoms: _164  and  _166
REMARK   73  A    between atoms: _166  and  _167
REMARK   74  A    between atoms: _169  and  _171
REMARK   75  A    between atoms: _171  and  _172
REMARK   76  A    between atoms: _171  and  _174
REMARK   77  A    between atoms: _174  and  _175
REMARK   78  A    between atoms: _181  and  _183
REMARK   79  A    between atoms: _183  and  _184
REMARK   80  A    between atoms: _183  and  _186
REMARK   81  A    between atoms: _186  and  _187
REMARK   82  A    between atoms: _190  and  _192
REMARK   83  A    between atoms: _192  and  _193
REMARK   84  A    between atoms: _192  and  _195
REMARK   85  A    between atoms: _198  and  _200
REMARK   86  A    between atoms: _200  and  _201
REMARK   87  A    between atoms: _200  and  _203
REMARK   88  A    between atoms: _203  and  _204
REMARK   89  A    between atoms: _207  and  _209
REMARK   90  A    between atoms: _209  and  _210
REMARK   91  A    between atoms: _209  and  _212
REMARK   92  A    between atoms: _212  and  _213
REMARK   93  A    between atoms: _217  and  _218
REMARK   94  A    between atoms: _223  and  _225
REMARK   95  A    between atoms: _225  and  _226
REMARK   96  A    between atoms: _225  and  _228
REMARK   97  A    between atoms: _231  and  _233
REMARK   98  A    between atoms: _233  and  _234
REMARK   99  A    between atoms: _233  and  _236
REMARK  100  A    between atoms: _236  and  _237
REMARK  101  A    between atoms: _242  and  _244
REMARK  102  A    between atoms: _244  and  _245
REMARK  103  A    between atoms: _244  and  _247
REMARK  104  A    between atoms: _247  and  _248
REMARK  105  A    between atoms: _251  and  _253
REMARK  106  A    between atoms: _253  and  _254
REMARK  107  A    between atoms: _253  and  _256
REMARK  108  A    between atoms: _256  and  _257
REMARK  109  A    between atoms: _260  and  _262
REMARK  110  A    between atoms: _262  and  _263
REMARK  111  A    between atoms: _265  and  _267
REMARK  112  A    between atoms: _267  and  _268
REMARK  113  A    between atoms: _267  and  _270
REMARK  114  A    between atoms: _270  and  _271
REMARK  115  A    between atoms: _271  and  _272
REMARK  116  A    between atoms: _272  and  _273
REMARK  117  A    between atoms: _282  and  _284
REMARK  118  A    between atoms: _284  and  _285
REMARK  119  A    between atoms: _284  and  _287
REMARK  120  A    between atoms: _288  and  _289
REMARK  121  A    between atoms: _289  and  _290
REMARK  122  A    between atoms: _299  and  _301
REMARK  123  A    between atoms: _301  and  _302
REMARK  124  A    between atoms: _301  and  _304
REMARK  125  A    between atoms: _304  and  _305
REMARK  126  A    between atoms: _308  and  _310
REMARK  127  A    between atoms: _310  and  _311
REMARK  128  A    between atoms: _310  and  _313
REMARK  129  A    between atoms: _313  and  _314
REMARK  130  A    between atoms: _317  and  _319
REMARK  131  A    between atoms: _319  and  _320
REMARK  132  A    between atoms: _319  and  _322
REMARK  133  A    between atoms: _322  and  _323
REMARK  134  A    between atoms: _326  and  _328
REMARK  135  A    between atoms: _328  and  _329
REMARK  136  A    between atoms: _328  and  _331
REMARK  137  A    between atoms: _331  and  _332
REMARK  138  A    between atoms: _335  and  _337
REMARK  139  A    between atoms: _337  and  _338
REMARK  140  A    between atoms: _340  and  _342
REMARK  141  A    between atoms: _342  and  _343
REMARK  142  A    between atoms: _346  and  _348
REMARK  143  A    between atoms: _348  and  _349
REMARK  144  A    between atoms: _348  and  _351
REMARK  145  A    between atoms: _351  and  _352
REMARK  146  A    between atoms: _355  and  _357
REMARK  147  A    between atoms: _357  and  _358
REMARK  148  A    between atoms: _357  and  _360
REMARK  149  A    between atoms: _360  and  _361
REMARK  150  A    between atoms: _364  and  _366
REMARK  151  A    between atoms: _366  and  _367
REMARK  152  A    between atoms: _366  and  _369
REMARK  153  A    between atoms: _369  and  _370
REMARK  154  A    between atoms: _373  and  _375
REMARK  155  A    between atoms: _375  and  _376
REMARK  156  A    between atoms: _375  and  _378
REMARK  157  A    between atoms: _381  and  _383
REMARK  158  A    between atoms: _383  and  _384
REMARK  159  A    between atoms: _383  and  _386
REMARK  160  A    between atoms: _386  and  _387
REMARK  161  A    between atoms: _390  and  _392
REMARK  162  A    between atoms: _392  and  _393
REMARK  163  A    between atoms: _392  and  _395
REMARK  164  A    between atoms: _395  and  _396
REMARK  165  A    between atoms: _396  and  _397
REMARK  166  A    between atoms: _397  and  _398
REMARK  167  A    between atoms: _398  and  _399
REMARK  168  A    between atoms: _403  and  _405
REMARK  169  A    between atoms: _405  and  _406
REMARK  170  A    between atoms: _405  and  _408
REMARK  171  A    between atoms: _408  and  _409
REMARK  172  A    between atoms: _409  and  _410
REMARK  173  A    between atoms: _412  and  _414
REMARK  174  A    between atoms: _414  and  _415
REMARK  175  A    between atoms: _414  and  _417
REMARK  176  A    between atoms: _417  and  _418
REMARK  177  A    between atoms: _421  and  _423
REMARK  178  A    between atoms: _423  and  _424
REMARK  179  A    between atoms: _426  and  _428
REMARK  180  A    between atoms: _428  and  _429
REMARK  181  A    between atoms: _431  and  _433
REMARK  182  A    between atoms: _433  and  _434
REMARK  183  A    between atoms: _433  and  _436
REMARK  184  A    between atoms: _436  and  _437
REMARK  185  A    between atoms: _440  and  _442
REMARK  186  A    between atoms: _442  and  _443
REMARK  187  A    between atoms: _445  and  _447
REMARK  188  A    between atoms: _447  and  _448
REMARK  189  A    between atoms: _450  and  _452
REMARK  190  A    between atoms: _452  and  _453
REMARK  191  A    between atoms: _452  and  _455
REMARK  192  A    between atoms: _455  and  _456
REMARK  193  A    between atoms: _462  and  _464
REMARK  194  A    between atoms: _464  and  _465
REMARK  195  A    between atoms: _464  and  _467
REMARK  196  A    between atoms: _467  and  _468
REMARK  197  A    between atoms: _471  and  _473
REMARK  198  A    between atoms: _473  and  _474
REMARK  199  A    between atoms: _473  and  _476
REMARK  200  A    between atoms: _479  and  _481
REMARK  201  A    between atoms: _481  and  _482
REMARK  202  A    between atoms: _481  and  _484
REMARK  203  A    between atoms: _484  and  _485
REMARK  204  A    between atoms: _488  and  _490
REMARK  205  A    between atoms: _490  and  _491
REMARK  206  A    between atoms: _490  and  _493
REMARK  207  A    between atoms: _493  and  _494
REMARK  208  A    between atoms: _498  and  _499
REMARK  209  A    between atoms: _504  and  _506
REMARK  210  A    between atoms: _506  and  _507
REMARK  211  A    between atoms: _506  and  _509
REMARK  212  A    between atoms: _512  and  _514
REMARK  213  A    between atoms: _514  and  _515
REMARK  214  A    between atoms: _514  and  _517
REMARK  215  A    between atoms: _517  and  _518
REMARK  216  A    between atoms: _523  and  _525
REMARK  217  A    between atoms: _525  and  _526
REMARK  218  A    between atoms: _525  and  _528
REMARK  219  A    between atoms: _528  and  _529
REMARK  220  A    between atoms: _532  and  _534
REMARK  221  A    between atoms: _534  and  _535
REMARK  222  A    between atoms: _534  and  _537
REMARK  223  A    between atoms: _537  and  _538
REMARK  224  A    between atoms: _541  and  _543
REMARK  225  A    between atoms: _543  and  _544
REMARK  226  A    between atoms: _546  and  _548
REMARK  227  A    between atoms: _548  and  _549
REMARK  228  A    between atoms: _548  and  _551
REMARK  229  A    between atoms: _551  and  _552
REMARK  230  A    between atoms: _552  and  _553
REMARK  231  A    between atoms: _553  and  _554
REMARK  232  A    between atoms: _563  and  _565
REMARK  233  A    between atoms: _565  and  _566
REMARK  234  A    between atoms: _565  and  _568
REMARK  235  A    between atoms: _568  and  _569
REMARK                            x       y       z     vdW  Elec       q    Type
REMARK                         _______ _______ _______ _____ _____    ______ ____
ROOT
ATOM      1  O   HOH     1      16.660   9.283  10.143  0.00  0.00    +0.000 OA
ENDROOT
TORSDOF 0
REMARK  Name = ../refined-set-2016/1sdt/1sdt_pocket.pdb
REMARK  235 active torsions:
REMARK  status: ('A' for Active; 'I' for Inactive)
REMARK    1  A    between atoms: _1  and  _3
REMARK    2  A    between atoms: _3  and  _4
REMARK    3  A    between atoms: _3  and  _6
REMARK    4  A    between atoms: _6  and  _7
REMARK    5  A    between atoms: _7  and  _8
REMARK    6  A    between atoms: _8  and  _9
REMARK    7  A    between atoms: _18  and  _20
REMARK    8  A    between atoms: _20  and  _21
REMARK    9  A    between atoms: _20  and  _23
REMARK   10  A    between atoms: _23  and  _24
REMARK   11  A    between atoms: _27  and  _29
REMARK   12  A    between atoms: _29  and  _30
REMARK   13  A    between atoms: _29  and  _32
REMARK   14  A    between atoms: _32  and  _33
REMARK   15  A    between atoms: _36  and  _38
REMARK   16  A    between atoms: _38  and  _39
REMARK   17  A    between atoms: _38  and  _41
REMARK   18  A    between atoms: _41  and  _42
REMARK   19  A    between atoms: _45  and  _47
REMARK   20  A    between atoms: _47  and  _48
REMARK   21  A    between atoms: _47  and  _50
REMARK   22  A    between atoms: _50  and  _51
REMARK   23  A    between atoms: _54  and  _56
REMARK   24  A    between atoms: _56  and  _57
REMARK   25  A    between atoms: _56  and  _59
REMARK   26  A    between atoms: _59  and  _60
REMARK   27  A    between atoms: _63  and  _65
REMARK   28  A    between atoms: _65  and  _66
REMARK   29  A    between atoms: _68  and  _70
REMARK   30  A    between atoms: _70  and  _71
REMARK   31  A    between atoms: _74  and  _76
REMARK   32  A    between atoms: _76  and  _77
REMARK   33  A    between atoms: _76  and  _79
REMARK   34  A    between atoms: _79  and  _80
REMARK   35  A    between atoms: _83  and  _85
REMARK   36  A    between atoms: _85  and  _86
REMARK   37  A    between atoms: _85  and  _88
REMARK   38  A    between atoms: _88  and  _89
REMARK   39  A    between atoms: _92  and  _94
REMARK   40  A    between atoms: _94  and  _95
REMARK   41  A    between atoms: _94  and  _97
REMARK   42  A    between atoms: _97  and  _98
REMARK   43  A    between atoms: _101  and  _103
REMARK   44  A    between atoms: _103  and  _104
REMARK   45  A    between atoms: _103  and  _106
REMARK   46  A    between atoms: _109  and  _111
REMARK   47  A    between atoms: _111  and  _112
REMARK   48  A    between atoms: _111  and  _114
REMARK   49  A    between atoms: _114  and  _115
REMARK   50  A    between atoms: _115  and  _116
REMARK   51  A    between atoms: _116  and  _117
REMARK   52  A    between atoms: _117  and  _118
REMARK   53  A    between atoms: _122  and  _124
REMARK   54  A    between atoms: _124  and  _125
REMARK   55  A    between atoms: _124  and  _127
REMARK   56  A    between atoms: _127  and  _128
REMARK   57  A    between atoms: _128  and  _129
REMARK   58  A    between atoms: _131  and  _133
REMARK   59  A    between atoms: _133  and  _134
REMARK   60  A    between atoms: _133  and  _136
REMARK   61  A    between atoms: _136  and  _137
REMARK   62  A    between atoms: _140  and  _142
REMARK   63  A    between atoms: _142  and  _143
REMARK   64  A    between atoms: _145  and  _147
REMARK   65  A    between atoms: _147  and  _148
REMARK   66  A    between atoms: _150  and  _152
REMARK   67  A    between atoms: _152  and  _153
REMARK   68  A    between atoms: _152  and  _155
REMARK   69  A    between atoms: _155  and  _156
REMARK   70  A    between atoms: _159  and  _161
REMARK   71  A    between atoms: _161  and  _162
REMARK   72  A    between atoms: _164  and  _166
REMARK   73  A    between atoms: _166  and  _167
REMARK   74  A    between atoms: _169  and  _171
REMARK   75  A    between atoms: _171  and  _172
REMARK   76  A    between atoms: _171  and  _174
REMARK   77  A    between atoms: _174  and  _175
REMARK   78  A    between atoms: _181  and  _183
REMARK   79  A    between atoms: _183  and  _184
REMARK   80  A    between atoms: _183  and  _186
REMARK   81  A    between atoms: _186  and  _187
REMARK   82  A    between atoms: _190  and  _192
REMARK   83  A    between atoms: _192  and  _193
REMARK   84  A    between atoms: _192  and  _195
REMARK   85  A    between atoms: _198  and  _200
REMARK   86  A    between atoms: _200  and  _201
REMARK   87  A    between atoms: _200  and  _203
REMARK   88  A    between atoms: _203  and  _204
REMARK   89  A    between atoms: _207  and  _209
REMARK   90  A    between atoms: _209  and  _210
REMARK   91  A    between atoms: _209  and  _212
REMARK   92  A    between atoms: _212  and  _213
REMARK   93  A    between atoms: _217  and  _218
REMARK   94  A    between atoms: _223  and  _225
REMARK   95  A    between atoms: _225  and  _226
REMARK   96  A    between atoms: _225  and  _228
REMARK   97  A    between atoms: _231  and  _233
REMARK   98  A    between atoms: _233  and  _234
REMARK   99  A    between atoms: _233  and  _236
REMARK  100  A    between atoms: _236  and  _237
REMARK  101  A    between atoms: _242  and  _244
REMARK  102  A    between atoms: _244  and  _245
REMARK  103  A    between atoms: _244  and  _247
REMARK  104  A    between atoms: _247  and  _248
REMARK  105  A    between atoms: _251  and  _253
REMARK  106  A    between atoms: _253  and  _254
REMARK  107  A    between atoms: _253  and  _256
REMARK  108  A    between atoms: _256  and  _257
REMARK  109  A    between atoms: _260  and  _262
REMARK  110  A    between atoms: _262  and  _263
REMARK  111  A    between atoms: _265  and  _267
REMARK  112  A    between atoms: _267  and  _268
REMARK  113  A    between atoms: _267  and  _270
REMARK  114  A    between atoms: _270  and  _271
REMARK  115  A    between atoms: _271  and  _272
REMARK  116  A    between atoms: _272  and  _273
REMARK  117  A    between atoms: _282  and  _284
REMARK  118  A    between atoms: _284  and  _285
REMARK  119  A    between atoms: _284  and  _287
REMARK  120  A    between atoms: _288  and  _289
REMARK  121  A    between atoms: _289  and  _290
REMARK  122  A    between atoms: _299  and  _301
REMARK  123  A    between atoms: _301  and  _302
REMARK  124  A    between atoms: _301  and  _304
REMARK  125  A    between atoms: _304  and  _305
REMARK  126  A    between atoms: _308  and  _310
REMARK  127  A    between atoms: _310  and  _311
REMARK  128  A    between atoms: _310  and  _313
REMARK  129  A    between atoms: _313  and  _314
REMARK  130  A    between atoms: _317  and  _319
REMARK  131  A    between atoms: _319  and  _320
REMARK  132  A    between atoms: _319  and  _322
REMARK  133  A    between atoms: _322  and  _323
REMARK  134  A    between atoms: _326  and  _328
REMARK  135  A    between atoms: _328  and  _329
REMARK  136  A    between atoms: _328  and  _331
REMARK  137  A    between atoms: _331  and  _332
REMARK  138  A    between atoms: _335  and  _337
REMARK  139  A    between atoms: _337  and  _338
REMARK  140  A    between atoms: _340  and  _342
REMARK  141  A    between atoms: _342  and  _343
REMARK  142  A    between atoms: _346  and  _348
REMARK  143  A    between atoms: _348  and  _349
REMARK  144  A    between atoms: _348  and  _351
REMARK  145  A    between atoms: _351  and  _352
REMARK  146  A    between atoms: _355  and  _357
REMARK  147  A    between atoms: _357  and  _358
REMARK  148  A    between atoms: _357  and  _360
REMARK  149  A    between atoms: _360  and  _361
REMARK  150  A    between atoms: _364  and  _366
REMARK  151  A    between atoms: _366  and  _367
REMARK  152  A    between atoms: _366  and  _369
REMARK  153  A    between atoms: _369  and  _370
REMARK  154  A    between atoms: _373  and  _375
REMARK  155  A    between atoms: _375  and  _376
REMARK  156  A    between atoms: _375  and  _378
REMARK  157  A    between atoms: _381  and  _383
REMARK  158  A    between atoms: _383  and  _384
REMARK  159  A    between atoms: _383  and  _386
REMARK  160  A    between atoms: _386  and  _387
REMARK  161  A    between atoms: _390  and  _392
REMARK  162  A    between atoms: _392  and  _393
REMARK  163  A    between atoms: _392  and  _395
REMARK  164  A    between atoms: _395  and  _396
REMARK  165  A    between atoms: _396  and  _397
REMARK  166  A    between atoms: _397  and  _398
REMARK  167  A    between atoms: _398  and  _399
REMARK  168  A    between atoms: _403  and  _405
REMARK  169  A    between atoms: _405  and  _406
REMARK  170  A    between atoms: _405  and  _408
REMARK  171  A    between atoms: _408  and  _409
REMARK  172  A    between atoms: _409  and  _410
REMARK  173  A    between atoms: _412  and  _414
REMARK  174  A    between atoms: _414  and  _415
REMARK  175  A    between atoms: _414  and  _417
REMARK  176  A    between atoms: _417  and  _418
REMARK  177  A    between atoms: _421  and  _423
REMARK  178  A    between atoms: _423  and  _424
REMARK  179  A    between atoms: _426  and  _428
REMARK  180  A    between atoms: _428  and  _429
REMARK  181  A    between atoms: _431  and  _433
REMARK  182  A    between atoms: _433  and  _434
REMARK  183  A    between atoms: _433  and  _436
REMARK  184  A    between atoms: _436  and  _437
REMARK  185  A    between atoms: _440  and  _442
REMARK  186  A    between atoms: _442  and  _443
REMARK  187  A    between atoms: _445  and  _447
REMARK  188  A    between atoms: _447  and  _448
REMARK  189  A    between atoms: _450  and  _452
REMARK  190  A    between atoms: _452  and  _453
REMARK  191  A    between atoms: _452  and  _455
REMARK  192  A    between atoms: _455  and  _456
REMARK  193  A    between atoms: _462  and  _464
REMARK  194  A    between atoms: _464  and  _465
REMARK  195  A    between atoms: _464  and  _467
REMARK  196  A    between atoms: _467  and  _468
REMARK  197  A    between atoms: _471  and  _473
REMARK  198  A    between atoms: _473  and  _474
REMARK  199  A    between atoms: _473  and  _476
REMARK  200  A    between atoms: _479  and  _481
REMARK  201  A    between atoms: _481  and  _482
REMARK  202  A    between atoms: _481  and  _484
REMARK  203  A    between atoms: _484  and  _485
REMARK  204  A    between atoms: _488  and  _490
REMARK  205  A    between atoms: _490  and  _491
REMARK  206  A    between atoms: _490  and  _493
REMARK  207  A    between atoms: _493  and  _494
REMARK  208  A    between atoms: _498  and  _499
REMARK  209  A    between atoms: _504  and  _506
REMARK  210  A    between atoms: _506  and  _507
REMARK  211  A    between atoms: _506  and  _509
REMARK  212  A    between atoms: _512  and  _514
REMARK  213  A    between atoms: _514  and  _515
REMARK  214  A    between atoms: _514  and  _517
REMARK  215  A    between atoms: _517  and  _518
REMARK  216  A    between atoms: _523  and  _525
REMARK  217  A    between atoms: _525  and  _526
REMARK  218  A    between atoms: _525  and  _528
REMARK  219  A    between atoms: _528  and  _529
REMARK  220  A    between atoms: _532  and  _534
REMARK  221  A    between atoms: _534  and  _535
REMARK  222  A    between atoms: _534  and  _537
REMARK  223  A    between atoms: _537  and  _538
REMARK  224  A    between atoms: _541  and  _543
REMARK  225  A    between atoms: _543  and  _544
REMARK  226  A    between atoms: _546  and  _548
REMARK  227  A    between atoms: _548  and  _549
REMARK  228  A    between atoms: _548  and  _551
REMARK  229  A    between atoms: _551  and  _552
REMARK  230  A    between atoms: _552  and  _553
REMARK  231  A    between atoms: _553  and  _554
REMARK  232  A    between atoms: _563  and  _565
REMARK  233  A    between atoms: _565  and  _566
REMARK  234  A    between atoms: _565  and  _568
REMARK  235  A    between atoms: _568  and  _569
REMARK                            x       y       z     vdW  Elec       q    Type
REMARK                         _______ _______ _______ _____ _____    ______ ____
ROOT
ATOM      1  O   HOH     1      25.744  23.517   6.185  0.00  0.00    +0.000 OA
ENDROOT
TORSDOF 0
REMARK  Name = ../refined-set-2016/1sdt/1sdt_pocket.pdb
REMARK  235 active torsions:
REMARK  status: ('A' for Active; 'I' for Inactive)
REMARK    1  A    between atoms: _1  and  _3
REMARK    2  A    between atoms: _3  and  _4
REMARK    3  A    between atoms: _3  and  _6
REMARK    4  A    between atoms: _6  and  _7
REMARK    5  A    between atoms: _7  and  _8
REMARK    6  A    between atoms: _8  and  _9
REMARK    7  A    between atoms: _18  and  _20
REMARK    8  A    between atoms: _20  and  _21
REMARK    9  A    between atoms: _20  and  _23
REMARK   10  A    between atoms: _23  and  _24
REMARK   11  A    between atoms: _27  and  _29
REMARK   12  A    between atoms: _29  and  _30
REMARK   13  A    between atoms: _29  and  _32
REMARK   14  A    between atoms: _32  and  _33
REMARK   15  A    between atoms: _36  and  _38
REMARK   16  A    between atoms: _38  and  _39
REMARK   17  A    between atoms: _38  and  _41
REMARK   18  A    between atoms: _41  and  _42
REMARK   19  A    between atoms: _45  and  _47
REMARK   20  A    between atoms: _47  and  _48
REMARK   21  A    between atoms: _47  and  _50
REMARK   22  A    between atoms: _50  and  _51
REMARK   23  A    between atoms: _54  and  _56
REMARK   24  A    between atoms: _56  and  _57
REMARK   25  A    between atoms: _56  and  _59
REMARK   26  A    between atoms: _59  and  _60
REMARK   27  A    between atoms: _63  and  _65
REMARK   28  A    between atoms: _65  and  _66
REMARK   29  A    between atoms: _68  and  _70
REMARK   30  A    between atoms: _70  and  _71
REMARK   31  A    between atoms: _74  and  _76
REMARK   32  A    between atoms: _76  and  _77
REMARK   33  A    between atoms: _76  and  _79
REMARK   34  A    between atoms: _79  and  _80
REMARK   35  A    between atoms: _83  and  _85
REMARK   36  A    between atoms: _85  and  _86
REMARK   37  A    between atoms: _85  and  _88
REMARK   38  A    between atoms: _88  and  _89
REMARK   39  A    between atoms: _92  and  _94
REMARK   40  A    between atoms: _94  and  _95
REMARK   41  A    between atoms: _94  and  _97
REMARK   42  A    between atoms: _97  and  _98
REMARK   43  A    between atoms: _101  and  _103
REMARK   44  A    between atoms: _103  and  _104
REMARK   45  A    between atoms: _103  and  _106
REMARK   46  A    between atoms: _109  and  _111
REMARK   47  A    between atoms: _111  and  _112
REMARK   48  A    between atoms: _111  and  _114
REMARK   49  A    between atoms: _114  and  _115
REMARK   50  A    between atoms: _115  and  _116
REMARK   51  A    between atoms: _116  and  _117
REMARK   52  A    between atoms: _117  and  _118
REMARK   53  A    between atoms: _122  and  _124
REMARK   54  A    between atoms: _124  and  _125
REMARK   55  A    between atoms: _124  and  _127
REMARK   56  A    between atoms: _127  and  _128
REMARK   57  A    between atoms: _128  and  _129
REMARK   58  A    between atoms: _131  and  _133
REMARK   59  A    between atoms: _133  and  _134
REMARK   60  A    between atoms: _133  and  _136
REMARK   61  A    between atoms: _136  and  _137
REMARK   62  A    between atoms: _140  and  _142
REMARK   63  A    between atoms: _142  and  _143
REMARK   64  A    between atoms: _145  and  _147
REMARK   65  A    between atoms: _147  and  _148
REMARK   66  A    between atoms: _150  and  _152
REMARK   67  A    between atoms: _152  and  _153
REMARK   68  A    between atoms: _152  and  _155
REMARK   69  A    between atoms: _155  and  _156
REMARK   70  A    between atoms: _159  and  _161
REMARK   71  A    between atoms: _161  and  _162
REMARK   72  A    between atoms: _164  and  _166
REMARK   73  A    between atoms: _166  and  _167
REMARK   74  A    between atoms: _169  and  _171
REMARK   75  A    between atoms: _171  and  _172
REMARK   76  A    between atoms: _171  and  _174
REMARK   77  A    between atoms: _174  and  _175
REMARK   78  A    between atoms: _181  and  _183
REMARK   79  A    between atoms: _183  and  _184
REMARK   80  A    between atoms: _183  and  _186
REMARK   81  A    between atoms: _186  and  _187
REMARK   82  A    between atoms: _190  and  _192
REMARK   83  A    between atoms: _192  and  _193
REMARK   84  A    between atoms: _192  and  _195
REMARK   85  A    between atoms: _198  and  _200
REMARK   86  A    between atoms: _200  and  _201
REMARK   87  A    between atoms: _200  and  _203
REMARK   88  A    between atoms: _203  and  _204
REMARK   89  A    between atoms: _207  and  _209
REMARK   90  A    between atoms: _209  and  _210
REMARK   91  A    between atoms: _209  and  _212
REMARK   92  A    between atoms: _212  and  _213
REMARK   93  A    between atoms: _217  and  _218
REMARK   94  A    between atoms: _223  and  _225
REMARK   95  A    between atoms: _225  and  _226
REMARK   96  A    between atoms: _225  and  _228
REMARK   97  A    between atoms: _231  and  _233
REMARK   98  A    between atoms: _233  and  _234
REMARK   99  A    between atoms: _233  and  _236
REMARK  100  A    between atoms: _236  and  _237
REMARK  101  A    between atoms: _242  and  _244
REMARK  102  A    between atoms: _244  and  _245
REMARK  103  A    between atoms: _244  and  _247
REMARK  104  A    between atoms: _247  and  _248
REMARK  105  A    between atoms: _251  and  _253
REMARK  106  A    between atoms: _253  and  _254
REMARK  107  A    between atoms: _253  and  _256
REMARK  108  A    between atoms: _256  and  _257
REMARK  109  A    between atoms: _260  and  _262
REMARK  110  A    between atoms: _262  and  _263
REMARK  111  A    between atoms: _265  and  _267
REMARK  112  A    between atoms: _267  and  _268
REMARK  113  A    between atoms: _267  and  _270
REMARK  114  A    between atoms: _270  and  _271
REMARK  115  A    between atoms: _271  and  _272
REMARK  116  A    between atoms: _272  and  _273
REMARK  117  A    between atoms: _282  and  _284
REMARK  118  A    between atoms: _284  and  _285
REMARK  119  A    between atoms: _284  and  _287
REMARK  120  A    between atoms: _288  and  _289
REMARK  121  A    between atoms: _289  and  _290
REMARK  122  A    between atoms: _299  and  _301
REMARK  123  A    between atoms: _301  and  _302
REMARK  124  A    between atoms: _301  and  _304
REMARK  125  A    between atoms: _304  and  _305
REMARK  126  A    between atoms: _308  and  _310
REMARK  127  A    between atoms: _310  and  _311
REMARK  128  A    between atoms: _310  and  _313
REMARK  129  A    between atoms: _313  and  _314
REMARK  130  A    between atoms: _317  and  _319
REMARK  131  A    between atoms: _319  and  _320
REMARK  132  A    between atoms: _319  and  _322
REMARK  133  A    between atoms: _322  and  _323
REMARK  134  A    between atoms: _326  and  _328
REMARK  135  A    between atoms: _328  and  _329
REMARK  136  A    between atoms: _328  and  _331
REMARK  137  A    between atoms: _331  and  _332
REMARK  138  A    between atoms: _335  and  _337
REMARK  139  A    between atoms: _337  and  _338
REMARK  140  A    between atoms: _340  and  _342
REMARK  141  A    between atoms: _342  and  _343
REMARK  142  A    between atoms: _346  and  _348
REMARK  143  A    between atoms: _348  and  _349
REMARK  144  A    between atoms: _348  and  _351
REMARK  145  A    between atoms: _351  and  _352
REMARK  146  A    between atoms: _355  and  _357
REMARK  147  A    between atoms: _357  and  _358
REMARK  148  A    between atoms: _357  and  _360
REMARK  149  A    between atoms: _360  and  _361
REMARK  150  A    between atoms: _364  and  _366
REMARK  151  A    between atoms: _366  and  _367
REMARK  152  A    between atoms: _366  and  _369
REMARK  153  A    between atoms: _369  and  _370
REMARK  154  A    between atoms: _373  and  _375
REMARK  155  A    between atoms: _375  and  _376
REMARK  156  A    between atoms: _375  and  _378
REMARK  157  A    between atoms: _381  and  _383
REMARK  158  A    between atoms: _383  and  _384
REMARK  159  A    between atoms: _383  and  _386
REMARK  160  A    between atoms: _386  and  _387
REMARK  161  A    between atoms: _390  and  _392
REMARK  162  A    between atoms: _392  and  _393
REMARK  163  A    between atoms: _392  and  _395
REMARK  164  A    between atoms: _395  and  _396
REMARK  165  A    between atoms: _396  and  _397
REMARK  166  A    between atoms: _397  and  _398
REMARK  167  A    between atoms: _398  and  _399
REMARK  168  A    between atoms: _403  and  _405
REMARK  169  A    between atoms: _405  and  _406
REMARK  170  A    between atoms: _405  and  _408
REMARK  171  A    between atoms: _408  and  _409
REMARK  172  A    between atoms: _409  and  _410
REMARK  173  A    between atoms: _412  and  _414
REMARK  174  A    between atoms: _414  and  _415
REMARK  175  A    between atoms: _414  and  _417
REMARK  176  A    between atoms: _417  and  _418
REMARK  177  A    between atoms: _421  and  _423
REMARK  178  A    between atoms: _423  and  _424
REMARK  179  A    between atoms: _426  and  _428
REMARK  180  A    between atoms: _428  and  _429
REMARK  181  A    between atoms: _431  and  _433
REMARK  182  A    between atoms: _433  and  _434
REMARK  183  A    between atoms: _433  and  _436
REMARK  184  A    between atoms: _436  and  _437
REMARK  185  A    between atoms: _440  and  _442
REMARK  186  A    between atoms: _442  and  _443
REMARK  187  A    between atoms: _445  and  _447
REMARK  188  A    between atoms: _447  and  _448
REMARK  189  A    between atoms: _450  and  _452
REMARK  190  A    between atoms: _452  and  _453
REMARK  191  A    between atoms: _452  and  _455
REMARK  192  A    between atoms: _455  and  _456
REMARK  193  A    between atoms: _462  and  _464
REMARK  194  A    between atoms: _464  and  _465
REMARK  195  A    between atoms: _464  and  _467
REMARK  196  A    between atoms: _467  and  _468
REMARK  197  A    between atoms: _471  and  _473
REMARK  198  A    between atoms: _473  and  _474
REMARK  199  A    between atoms: _473  and  _476
REMARK  200  A    between atoms: _479  and  _481
REMARK  201  A    between atoms: _481  and  _482
REMARK  202  A    between atoms: _481  and  _484
REMARK  203  A    between atoms: _484  and  _485
REMARK  204  A    between atoms: _488  and  _490
REMARK  205  A    between atoms: _490  and  _491
REMARK  206  A    between atoms: _490  and  _493
REMARK  207  A    between atoms: _493  and  _494
REMARK  208  A    between atoms: _498  and  _499
REMARK  209  A    between atoms: _504  and  _506
REMARK  210  A    between atoms: _506  and  _507
REMARK  211  A    between atoms: _506  and  _509
REMARK  212  A    between atoms: _512  and  _514
REMARK  213  A    between atoms: _514  and  _515
REMARK  214  A    between atoms: _514  and  _517
REMARK  215  A    between atoms: _517  and  _518
REMARK  216  A    between atoms: _523  and  _525
REMARK  217  A    between atoms: _525  and  _526
REMARK  218  A    between atoms: _525  and  _528
REMARK  219  A    between atoms: _528  and  _529
REMARK  220  A    between atoms: _532  and  _534
REMARK  221  A    between atoms: _534  and  _535
REMARK  222  A    between atoms: _534  and  _537
REMARK  223  A    between atoms: _537  and  _538
REMARK  224  A    between atoms: _541  and  _543
REMARK  225  A    between atoms: _543  and  _544
REMARK  226  A    between atoms: _546  and  _548
REMARK  227  A    between atoms: _548  and  _549
REMARK  228  A    between atoms: _548  and  _551
REMARK  229  A    between atoms: _551  and  _552
REMARK  230  A    between atoms: _552  and  _553
REMARK  231  A    between atoms: _553  and  _554
REMARK  232  A    between atoms: _563  and  _565
REMARK  233  A    between atoms: _565  and  _566
REMARK  234  A    between atoms: _565  and  _568
REMARK  235  A    between atoms: _568  and  _569
REMARK                            x       y       z     vdW  Elec       q    Type
REMARK                         _______ _______ _______ _____ _____    ______ ____
ROOT
ATOM      1  O   HOH     1      21.078   4.075  12.153  0.00  0.00    +0.000 OA
ENDROOT
TORSDOF 0
REMARK  Name = ../refined-set-2016/1sdt/1sdt_pocket.pdb
REMARK  235 active torsions:
REMARK  status: ('A' for Active; 'I' for Inactive)
REMARK    1  A    between atoms: _1  and  _3
REMARK    2  A    between atoms: _3  and  _4
REMARK    3  A    between atoms: _3  and  _6
REMARK    4  A    between atoms: _6  and  _7
REMARK    5  A    between atoms: _7  and  _8
REMARK    6  A    between atoms: _8  and  _9
REMARK    7  A    between atoms: _18  and  _20
REMARK    8  A    between atoms: _20  and  _21
REMARK    9  A    between atoms: _20  and  _23
REMARK   10  A    between atoms: _23  and  _24
REMARK   11  A    between atoms: _27  and  _29
REMARK   12  A    between atoms: _29  and  _30
REMARK   13  A    between atoms: _29  and  _32
REMARK   14  A    between atoms: _32  and  _33
REMARK   15  A    between atoms: _36  and  _38
REMARK   16  A    between atoms: _38  and  _39
REMARK   17  A    between atoms: _38  and  _41
REMARK   18  A    between atoms: _41  and  _42
REMARK   19  A    between atoms: _45  and  _47
REMARK   20  A    between atoms: _47  and  _48
REMARK   21  A    between atoms: _47  and  _50
REMARK   22  A    between atoms: _50  and  _51
REMARK   23  A    between atoms: _54  and  _56
REMARK   24  A    between atoms: _56  and  _57
REMARK   25  A    between atoms: _56  and  _59
REMARK   26  A    between atoms: _59  and  _60
REMARK   27  A    between atoms: _63  and  _65
REMARK   28  A    between atoms: _65  and  _66
REMARK   29  A    between atoms: _68  and  _70
REMARK   30  A    between atoms: _70  and  _71
REMARK   31  A    between atoms: _74  and  _76
REMARK   32  A    between atoms: _76  and  _77
REMARK   33  A    between atoms: _76  and  _79
REMARK   34  A    between atoms: _79  and  _80
REMARK   35  A    between atoms: _83  and  _85
REMARK   36  A    between atoms: _85  and  _86
REMARK   37  A    between atoms: _85  and  _88
REMARK   38  A    between atoms: _88  and  _89
REMARK   39  A    between atoms: _92  and  _94
REMARK   40  A    between atoms: _94  and  _95
REMARK   41  A    between atoms: _94  and  _97
REMARK   42  A    between atoms: _97  and  _98
REMARK   43  A    between atoms: _101  and  _103
REMARK   44  A    between atoms: _103  and  _104
REMARK   45  A    between atoms: _103  and  _106
REMARK   46  A    between atoms: _109  and  _111
REMARK   47  A    between atoms: _111  and  _112
REMARK   48  A    between atoms: _111  and  _114
REMARK   49  A    between atoms: _114  and  _115
REMARK   50  A    between atoms: _115  and  _116
REMARK   51  A    between atoms: _116  and  _117
REMARK   52  A    between atoms: _117  and  _118
REMARK   53  A    between atoms: _122  and  _124
REMARK   54  A    between atoms: _124  and  _125
REMARK   55  A    between atoms: _124  and  _127
REMARK   56  A    between atoms: _127  and  _128
REMARK   57  A    between atoms: _128  and  _129
REMARK   58  A    between atoms: _131  and  _133
REMARK   59  A    between atoms: _133  and  _134
REMARK   60  A    between atoms: _133  and  _136
REMARK   61  A    between atoms: _136  and  _137
REMARK   62  A    between atoms: _140  and  _142
REMARK   63  A    between atoms: _142  and  _143
REMARK   64  A    between atoms: _145  and  _147
REMARK   65  A    between atoms: _147  and  _148
REMARK   66  A    between atoms: _150  and  _152
REMARK   67  A    between atoms: _152  and  _153
REMARK   68  A    between atoms: _152  and  _155
REMARK   69  A    between atoms: _155  and  _156
REMARK   70  A    between atoms: _159  and  _161
REMARK   71  A    between atoms: _161  and  _162
REMARK   72  A    between atoms: _164  and  _166
REMARK   73  A    between atoms: _166  and  _167
REMARK   74  A    between atoms: _169  and  _171
REMARK   75  A    between atoms: _171  and  _172
REMARK   76  A    between atoms: _171  and  _174
REMARK   77  A    between atoms: _174  and  _175
REMARK   78  A    between atoms: _181  and  _183
REMARK   79  A    between atoms: _183  and  _184
REMARK   80  A    between atoms: _183  and  _186
REMARK   81  A    between atoms: _186  and  _187
REMARK   82  A    between atoms: _190  and  _192
REMARK   83  A    between atoms: _192  and  _193
REMARK   84  A    between atoms: _192  and  _195
REMARK   85  A    between atoms: _198  and  _200
REMARK   86  A    between atoms: _200  and  _201
REMARK   87  A    between atoms: _200  and  _203
REMARK   88  A    between atoms: _203  and  _204
REMARK   89  A    between atoms: _207  and  _209
REMARK   90  A    between atoms: _209  and  _210
REMARK   91  A    between atoms: _209  and  _212
REMARK   92  A    between atoms: _212  and  _213
REMARK   93  A    between atoms: _217  and  _218
REMARK   94  A    between atoms: _223  and  _225
REMARK   95  A    between atoms: _225  and  _226
REMARK   96  A    between atoms: _225  and  _228
REMARK   97  A    between atoms: _231  and  _233
REMARK   98  A    between atoms: _233  and  _234
REMARK   99  A    between atoms: _233  and  _236
REMARK  100  A    between atoms: _236  and  _237
REMARK  101  A    between atoms: _242  and  _244
REMARK  102  A    between atoms: _244  and  _245
REMARK  103  A    between atoms: _244  and  _247
REMARK  104  A    between atoms: _247  and  _248
REMARK  105  A    between atoms: _251  and  _253
REMARK  106  A    between atoms: _253  and  _254
REMARK  107  A    between atoms: _253  and  _256
REMARK  108  A    between atoms: _256  and  _257
REMARK  109  A    between atoms: _260  and  _262
REMARK  110  A    between atoms: _262  and  _263
REMARK  111  A    between atoms: _265  and  _267
REMARK  112  A    between atoms: _267  and  _268
REMARK  113  A    between atoms: _267  and  _270
REMARK  114  A    between atoms: _270  and  _271
REMARK  115  A    between atoms: _271  and  _272
REMARK  116  A    between atoms: _272  and  _273
REMARK  117  A    between atoms: _282  and  _284
REMARK  118  A    between atoms: _284  and  _285
REMARK  119  A    between atoms: _284  and  _287
REMARK  120  A    between atoms: _288  and  _289
REMARK  121  A    between atoms: _289  and  _290
REMARK  122  A    between atoms: _299  and  _301
REMARK  123  A    between atoms: _301  and  _302
REMARK  124  A    between atoms: _301  and  _304
REMARK  125  A    between atoms: _304  and  _305
REMARK  126  A    between atoms: _308  and  _310
REMARK  127  A    between atoms: _310  and  _311
REMARK  128  A    between atoms: _310  and  _313
REMARK  129  A    between atoms: _313  and  _314
REMARK  130  A    between atoms: _317  and  _319
REMARK  131  A    between atoms: _319  and  _320
REMARK  132  A    between atoms: _319  and  _322
REMARK  133  A    between atoms: _322  and  _323
REMARK  134  A    between atoms: _326  and  _328
REMARK  135  A    between atoms: _328  and  _329
REMARK  136  A    between atoms: _328  and  _331
REMARK  137  A    between atoms: _331  and  _332
REMARK  138  A    between atoms: _335  and  _337
REMARK  139  A    between atoms: _337  and  _338
REMARK  140  A    between atoms: _340  and  _342
REMARK  141  A    between atoms: _342  and  _343
REMARK  142  A    between atoms: _346  and  _348
REMARK  143  A    between atoms: _348  and  _349
REMARK  144  A    between atoms: _348  and  _351
REMARK  145  A    between atoms: _351  and  _352
REMARK  146  A    between atoms: _355  and  _357
REMARK  147  A    between atoms: _357  and  _358
REMARK  148  A    between atoms: _357  and  _360
REMARK  149  A    between atoms: _360  and  _361
REMARK  150  A    between atoms: _364  and  _366
REMARK  151  A    between atoms: _366  and  _367
REMARK  152  A    between atoms: _366  and  _369
REMARK  153  A    between atoms: _369  and  _370
REMARK  154  A    between atoms: _373  and  _375
REMARK  155  A    between atoms: _375  and  _376
REMARK  156  A    between atoms: _375  and  _378
REMARK  157  A    between atoms: _381  and  _383
REMARK  158  A    between atoms: _383  and  _384
REMARK  159  A    between atoms: _383  and  _386
REMARK  160  A    between atoms: _386  and  _387
REMARK  161  A    between atoms: _390  and  _392
REMARK  162  A    between atoms: _392  and  _393
REMARK  163  A    between atoms: _392  and  _395
REMARK  164  A    between atoms: _395  and  _396
REMARK  165  A    between atoms: _396  and  _397
REMARK  166  A    between atoms: _397  and  _398
REMARK  167  A    between atoms: _398  and  _399
REMARK  168  A    between atoms: _403  and  _405
REMARK  169  A    between atoms: _405  and  _406
REMARK  170  A    between atoms: _405  and  _408
REMARK  171  A    between atoms: _408  and  _409
REMARK  172  A    between atoms: _409  and  _410
REMARK  173  A    between atoms: _412  and  _414
REMARK  174  A    between atoms: _414  and  _415
REMARK  175  A    between atoms: _414  and  _417
REMARK  176  A    between atoms: _417  and  _418
REMARK  177  A    between atoms: _421  and  _423
REMARK  178  A    between atoms: _423  and  _424
REMARK  179  A    between atoms: _426  and  _428
REMARK  180  A    between atoms: _428  and  _429
REMARK  181  A    between atoms: _431  and  _433
REMARK  182  A    between atoms: _433  and  _434
REMARK  183  A    between atoms: _433  and  _436
REMARK  184  A    between atoms: _436  and  _437
REMARK  185  A    between atoms: _440  and  _442
REMARK  186  A    between atoms: _442  and  _443
REMARK  187  A    between atoms: _445  and  _447
REMARK  188  A    between atoms: _447  and  _448
REMARK  189  A    between atoms: _450  and  _452
REMARK  190  A    between atoms: _452  and  _453
REMARK  191  A    between atoms: _452  and  _455
REMARK  192  A    between atoms: _455  and  _456
REMARK  193  A    between atoms: _462  and  _464
REMARK  194  A    between atoms: _464  and  _465
REMARK  195  A    between atoms: _464  and  _467
REMARK  196  A    between atoms: _467  and  _468
REMARK  197  A    between atoms: _471  and  _473
REMARK  198  A    between atoms: _473  and  _474
REMARK  199  A    between atoms: _473  and  _476
REMARK  200  A    between atoms: _479  and  _481
REMARK  201  A    between atoms: _481  and  _482
REMARK  202  A    between atoms: _481  and  _484
REMARK  203  A    between atoms: _484  and  _485
REMARK  204  A    between atoms: _488  and  _490
REMARK  205  A    between atoms: _490  and  _491
REMARK  206  A    between atoms: _490  and  _493
REMARK  207  A    between atoms: _493  and  _494
REMARK  208  A    between atoms: _498  and  _499
REMARK  209  A    between atoms: _504  and  _506
REMARK  210  A    between atoms: _506  and  _507
REMARK  211  A    between atoms: _506  and  _509
REMARK  212  A    between atoms: _512  and  _514
REMARK  213  A    between atoms: _514  and  _515
REMARK  214  A    between atoms: _514  and  _517
REMARK  215  A    between atoms: _517  and  _518
REMARK  216  A    between atoms: _523  and  _525
REMARK  217  A    between atoms: _525  and  _526
REMARK  218  A    between atoms: _525  and  _528
REMARK  219  A    between atoms: _528  and  _529
REMARK  220  A    between atoms: _532  and  _534
REMARK  221  A    between atoms: _534  and  _535
REMARK  222  A    between atoms: _534  and  _537
REMARK  223  A    between atoms: _537  and  _538
REMARK  224  A    between atoms: _541  and  _543
REMARK  225  A    between atoms: _543  and  _544
REMARK  226  A    between atoms: _546  and  _548
REMARK  227  A    between atoms: _548  and  _549
REMARK  228  A    between atoms: _548  and  _551
REMARK  229  A    between atoms: _551  and  _552
REMARK  230  A    between atoms: _552  and  _553
REMARK  231  A    between atoms: _553  and  _554
REMARK  232  A    between atoms: _563  and  _565
REMARK  233  A    between atoms: _565  and  _566
REMARK  234  A    between atoms: _565  and  _568
REMARK  235  A    between atoms: _568  and  _569
REMARK                            x       y       z     vdW  Elec       q    Type
REMARK                         _______ _______ _______ _____ _____    ______ ____
ROOT
ATOM      1  O   HOH     1      17.847   8.294  12.189  0.00  0.00    +0.000 OA
ENDROOT
TORSDOF 0
REMARK  Name = ../refined-set-2016/1sdt/1sdt_pocket.pdb
REMARK  235 active torsions:
REMARK  status: ('A' for Active; 'I' for Inactive)
REMARK    1  A    between atoms: _1  and  _3
REMARK    2  A    between atoms: _3  and  _4
REMARK    3  A    between atoms: _3  and  _6
REMARK    4  A    between atoms: _6  and  _7
REMARK    5  A    between atoms: _7  and  _8
REMARK    6  A    between atoms: _8  and  _9
REMARK    7  A    between atoms: _18  and  _20
REMARK    8  A    between atoms: _20  and  _21
REMARK    9  A    between atoms: _20  and  _23
REMARK   10  A    between atoms: _23  and  _24
REMARK   11  A    between atoms: _27  and  _29
REMARK   12  A    between atoms: _29  and  _30
REMARK   13  A    between atoms: _29  and  _32
REMARK   14  A    between atoms: _32  and  _33
REMARK   15  A    between atoms: _36  and  _38
REMARK   16  A    between atoms: _38  and  _39
REMARK   17  A    between atoms: _38  and  _41
REMARK   18  A    between atoms: _41  and  _42
REMARK   19  A    between atoms: _45  and  _47
REMARK   20  A    between atoms: _47  and  _48
REMARK   21  A    between atoms: _47  and  _50
REMARK   22  A    between atoms: _50  and  _51
REMARK   23  A    between atoms: _54  and  _56
REMARK   24  A    between atoms: _56  and  _57
REMARK   25  A    between atoms: _56  and  _59
REMARK   26  A    between atoms: _59  and  _60
REMARK   27  A    between atoms: _63  and  _65
REMARK   28  A    between atoms: _65  and  _66
REMARK   29  A    between atoms: _68  and  _70
REMARK   30  A    between atoms: _70  and  _71
REMARK   31  A    between atoms: _74  and  _76
REMARK   32  A    between atoms: _76  and  _77
REMARK   33  A    between atoms: _76  and  _79
REMARK   34  A    between atoms: _79  and  _80
REMARK   35  A    between atoms: _83  and  _85
REMARK   36  A    between atoms: _85  and  _86
REMARK   37  A    between atoms: _85  and  _88
REMARK   38  A    between atoms: _88  and  _89
REMARK   39  A    between atoms: _92  and  _94
REMARK   40  A    between atoms: _94  and  _95
REMARK   41  A    between atoms: _94  and  _97
REMARK   42  A    between atoms: _97  and  _98
REMARK   43  A    between atoms: _101  and  _103
REMARK   44  A    between atoms: _103  and  _104
REMARK   45  A    between atoms: _103  and  _106
REMARK   46  A    between atoms: _109  and  _111
REMARK   47  A    between atoms: _111  and  _112
REMARK   48  A    between atoms: _111  and  _114
REMARK   49  A    between atoms: _114  and  _115
REMARK   50  A    between atoms: _115  and  _116
REMARK   51  A    between atoms: _116  and  _117
REMARK   52  A    between atoms: _117  and  _118
REMARK   53  A    between atoms: _122  and  _124
REMARK   54  A    between atoms: _124  and  _125
REMARK   55  A    between atoms: _124  and  _127
REMARK   56  A    between atoms: _127  and  _128
REMARK   57  A    between atoms: _128  and  _129
REMARK   58  A    between atoms: _131  and  _133
REMARK   59  A    between atoms: _133  and  _134
REMARK   60  A    between atoms: _133  and  _136
REMARK   61  A    between atoms: _136  and  _137
REMARK   62  A    between atoms: _140  and  _142
REMARK   63  A    between atoms: _142  and  _143
REMARK   64  A    between atoms: _145  and  _147
REMARK   65  A    between atoms: _147  and  _148
REMARK   66  A    between atoms: _150  and  _152
REMARK   67  A    between atoms: _152  and  _153
REMARK   68  A    between atoms: _152  and  _155
REMARK   69  A    between atoms: _155  and  _156
REMARK   70  A    between atoms: _159  and  _161
REMARK   71  A    between atoms: _161  and  _162
REMARK   72  A    between atoms: _164  and  _166
REMARK   73  A    between atoms: _166  and  _167
REMARK   74  A    between atoms: _169  and  _171
REMARK   75  A    between atoms: _171  and  _172
REMARK   76  A    between atoms: _171  and  _174
REMARK   77  A    between atoms: _174  and  _175
REMARK   78  A    between atoms: _181  and  _183
REMARK   79  A    between atoms: _183  and  _184
REMARK   80  A    between atoms: _183  and  _186
REMARK   81  A    between atoms: _186  and  _187
REMARK   82  A    between atoms: _190  and  _192
REMARK   83  A    between atoms: _192  and  _193
REMARK   84  A    between atoms: _192  and  _195
REMARK   85  A    between atoms: _198  and  _200
REMARK   86  A    between atoms: _200  and  _201
REMARK   87  A    between atoms: _200  and  _203
REMARK   88  A    between atoms: _203  and  _204
REMARK   89  A    between atoms: _207  and  _209
REMARK   90  A    between atoms: _209  and  _210
REMARK   91  A    between atoms: _209  and  _212
REMARK   92  A    between atoms: _212  and  _213
REMARK   93  A    between atoms: _217  and  _218
REMARK   94  A    between atoms: _223  and  _225
REMARK   95  A    between atoms: _225  and  _226
REMARK   96  A    between atoms: _225  and  _228
REMARK   97  A    between atoms: _231  and  _233
REMARK   98  A    between atoms: _233  and  _234
REMARK   99  A    between atoms: _233  and  _236
REMARK  100  A    between atoms: _236  and  _237
REMARK  101  A    between atoms: _242  and  _244
REMARK  102  A    between atoms: _244  and  _245
REMARK  103  A    between atoms: _244  and  _247
REMARK  104  A    between atoms: _247  and  _248
REMARK  105  A    between atoms: _251  and  _253
REMARK  106  A    between atoms: _253  and  _254
REMARK  107  A    between atoms: _253  and  _256
REMARK  108  A    between atoms: _256  and  _257
REMARK  109  A    between atoms: _260  and  _262
REMARK  110  A    between atoms: _262  and  _263
REMARK  111  A    between atoms: _265  and  _267
REMARK  112  A    between atoms: _267  and  _268
REMARK  113  A    between atoms: _267  and  _270
REMARK  114  A    between atoms: _270  and  _271
REMARK  115  A    between atoms: _271  and  _272
REMARK  116  A    between atoms: _272  and  _273
REMARK  117  A    between atoms: _282  and  _284
REMARK  118  A    between atoms: _284  and  _285
REMARK  119  A    between atoms: _284  and  _287
REMARK  120  A    between atoms: _288  and  _289
REMARK  121  A    between atoms: _289  and  _290
REMARK  122  A    between atoms: _299  and  _301
REMARK  123  A    between atoms: _301  and  _302
REMARK  124  A    between atoms: _301  and  _304
REMARK  125  A    between atoms: _304  and  _305
REMARK  126  A    between atoms: _308  and  _310
REMARK  127  A    between atoms: _310  and  _311
REMARK  128  A    between atoms: _310  and  _313
REMARK  129  A    between atoms: _313  and  _314
REMARK  130  A    between atoms: _317  and  _319
REMARK  131  A    between atoms: _319  and  _320
REMARK  132  A    between atoms: _319  and  _322
REMARK  133  A    between atoms: _322  and  _323
REMARK  134  A    between atoms: _326  and  _328
REMARK  135  A    between atoms: _328  and  _329
REMARK  136  A    between atoms: _328  and  _331
REMARK  137  A    between atoms: _331  and  _332
REMARK  138  A    between atoms: _335  and  _337
REMARK  139  A    between atoms: _337  and  _338
REMARK  140  A    between atoms: _340  and  _342
REMARK  141  A    between atoms: _342  and  _343
REMARK  142  A    between atoms: _346  and  _348
REMARK  143  A    between atoms: _348  and  _349
REMARK  144  A    between atoms: _348  and  _351
REMARK  145  A    between atoms: _351  and  _352
REMARK  146  A    between atoms: _355  and  _357
REMARK  147  A    between atoms: _357  and  _358
REMARK  148  A    between atoms: _357  and  _360
REMARK  149  A    between atoms: _360  and  _361
REMARK  150  A    between atoms: _364  and  _366
REMARK  151  A    between atoms: _366  and  _367
REMARK  152  A    between atoms: _366  and  _369
REMARK  153  A    between atoms: _369  and  _370
REMARK  154  A    between atoms: _373  and  _375
REMARK  155  A    between atoms: _375  and  _376
REMARK  156  A    between atoms: _375  and  _378
REMARK  157  A    between atoms: _381  and  _383
REMARK  158  A    between atoms: _383  and  _384
REMARK  159  A    between atoms: _383  and  _386
REMARK  160  A    between atoms: _386  and  _387
REMARK  161  A    between atoms: _390  and  _392
REMARK  162  A    between atoms: _392  and  _393
REMARK  163  A    between atoms: _392  and  _395
REMARK  164  A    between atoms: _395  and  _396
REMARK  165  A    between atoms: _396  and  _397
REMARK  166  A    between atoms: _397  and  _398
REMARK  167  A    between atoms: _398  and  _399
REMARK  168  A    between atoms: _403  and  _405
REMARK  169  A    between atoms: _405  and  _406
REMARK  170  A    between atoms: _405  and  _408
REMARK  171  A    between atoms: _408  and  _409
REMARK  172  A    between atoms: _409  and  _410
REMARK  173  A    between atoms: _412  and  _414
REMARK  174  A    between atoms: _414  and  _415
REMARK  175  A    between atoms: _414  and  _417
REMARK  176  A    between atoms: _417  and  _418
REMARK  177  A    between atoms: _421  and  _423
REMARK  178  A    between atoms: _423  and  _424
REMARK  179  A    between atoms: _426  and  _428
REMARK  180  A    between atoms: _428  and  _429
REMARK  181  A    between atoms: _431  and  _433
REMARK  182  A    between atoms: _433  and  _434
REMARK  183  A    between atoms: _433  and  _436
REMARK  184  A    between atoms: _436  and  _437
REMARK  185  A    between atoms: _440  and  _442
REMARK  186  A    between atoms: _442  and  _443
REMARK  187  A    between atoms: _445  and  _447
REMARK  188  A    between atoms: _447  and  _448
REMARK  189  A    between atoms: _450  and  _452
REMARK  190  A    between atoms: _452  and  _453
REMARK  191  A    between atoms: _452  and  _455
REMARK  192  A    between atoms: _455  and  _456
REMARK  193  A    between atoms: _462  and  _464
REMARK  194  A    between atoms: _464  and  _465
REMARK  195  A    between atoms: _464  and  _467
REMARK  196  A    between atoms: _467  and  _468
REMARK  197  A    between atoms: _471  and  _473
REMARK  198  A    between atoms: _473  and  _474
REMARK  199  A    between atoms: _473  and  _476
REMARK  200  A    between atoms: _479  and  _481
REMARK  201  A    between atoms: _481  and  _482
REMARK  202  A    between atoms: _481  and  _484
REMARK  203  A    between atoms: _484  and  _485
REMARK  204  A    between atoms: _488  and  _490
REMARK  205  A    between atoms: _490  and  _491
REMARK  206  A    between atoms: _490  and  _493
REMARK  207  A    between atoms: _493  and  _494
REMARK  208  A    between atoms: _498  and  _499
REMARK  209  A    between atoms: _504  and  _506
REMARK  210  A    between atoms: _506  and  _507
REMARK  211  A    between atoms: _506  and  _509
REMARK  212  A    between atoms: _512  and  _514
REMARK  213  A    between atoms: _514  and  _515
REMARK  214  A    between atoms: _514  and  _517
REMARK  215  A    between atoms: _517  and  _518
REMARK  216  A    between atoms: _523  and  _525
REMARK  217  A    between atoms: _525  and  _526
REMARK  218  A    between atoms: _525  and  _528
REMARK  219  A    between atoms: _528  and  _529
REMARK  220  A    between atoms: _532  and  _534
REMARK  221  A    between atoms: _534  and  _535
REMARK  222  A    between atoms: _534  and  _537
REMARK  223  A    between atoms: _537  and  _538
REMARK  224  A    between atoms: _541  and  _543
REMARK  225  A    between atoms: _543  and  _544
REMARK  226  A    between atoms: _546  and  _548
REMARK  227  A    between atoms: _548  and  _549
REMARK  228  A    between atoms: _548  and  _551
REMARK  229  A    between atoms: _551  and  _552
REMARK  230  A    between atoms: _552  and  _553
REMARK  231  A    between atoms: _553  and  _554
REMARK  232  A    between atoms: _563  and  _565
REMARK  233  A    between atoms: _565  and  _566
REMARK  234  A    between atoms: _565  and  _568
REMARK  235  A    between atoms: _568  and  _569
REMARK                            x       y       z     vdW  Elec       q    Type
REMARK                         _______ _______ _______ _____ _____    ______ ____
ROOT
ATOM      1  O   HOH     1      32.496  25.104   7.663  0.00  0.00    +0.000 OA
ENDROOT
TORSDOF 0
REMARK  Name = ../refined-set-2016/1sdt/1sdt_pocket.pdb
REMARK  235 active torsions:
REMARK  status: ('A' for Active; 'I' for Inactive)
REMARK    1  A    between atoms: _1  and  _3
REMARK    2  A    between atoms: _3  and  _4
REMARK    3  A    between atoms: _3  and  _6
REMARK    4  A    between atoms: _6  and  _7
REMARK    5  A    between atoms: _7  and  _8
REMARK    6  A    between atoms: _8  and  _9
REMARK    7  A    between atoms: _18  and  _20
REMARK    8  A    between atoms: _20  and  _21
REMARK    9  A    between atoms: _20  and  _23
REMARK   10  A    between atoms: _23  and  _24
REMARK   11  A    between atoms: _27  and  _29
REMARK   12  A    between atoms: _29  and  _30
REMARK   13  A    between atoms: _29  and  _32
REMARK   14  A    between atoms: _32  and  _33
REMARK   15  A    between atoms: _36  and  _38
REMARK   16  A    between atoms: _38  and  _39
REMARK   17  A    between atoms: _38  and  _41
REMARK   18  A    between atoms: _41  and  _42
REMARK   19  A    between atoms: _45  and  _47
REMARK   20  A    between atoms: _47  and  _48
REMARK   21  A    between atoms: _47  and  _50
REMARK   22  A    between atoms: _50  and  _51
REMARK   23  A    between atoms: _54  and  _56
REMARK   24  A    between atoms: _56  and  _57
REMARK   25  A    between atoms: _56  and  _59
REMARK   26  A    between atoms: _59  and  _60
REMARK   27  A    between atoms: _63  and  _65
REMARK   28  A    between atoms: _65  and  _66
REMARK   29  A    between atoms: _68  and  _70
REMARK   30  A    between atoms: _70  and  _71
REMARK   31  A    between atoms: _74  and  _76
REMARK   32  A    between atoms: _76  and  _77
REMARK   33  A    between atoms: _76  and  _79
REMARK   34  A    between atoms: _79  and  _80
REMARK   35  A    between atoms: _83  and  _85
REMARK   36  A    between atoms: _85  and  _86
REMARK   37  A    between atoms: _85  and  _88
REMARK   38  A    between atoms: _88  and  _89
REMARK   39  A    between atoms: _92  and  _94
REMARK   40  A    between atoms: _94  and  _95
REMARK   41  A    between atoms: _94  and  _97
REMARK   42  A    between atoms: _97  and  _98
REMARK   43  A    between atoms: _101  and  _103
REMARK   44  A    between atoms: _103  and  _104
REMARK   45  A    between atoms: _103  and  _106
REMARK   46  A    between atoms: _109  and  _111
REMARK   47  A    between atoms: _111  and  _112
REMARK   48  A    between atoms: _111  and  _114
REMARK   49  A    between atoms: _114  and  _115
REMARK   50  A    between atoms: _115  and  _116
REMARK   51  A    between atoms: _116  and  _117
REMARK   52  A    between atoms: _117  and  _118
REMARK   53  A    between atoms: _122  and  _124
REMARK   54  A    between atoms: _124  and  _125
REMARK   55  A    between atoms: _124  and  _127
REMARK   56  A    between atoms: _127  and  _128
REMARK   57  A    between atoms: _128  and  _129
REMARK   58  A    between atoms: _131  and  _133
REMARK   59  A    between atoms: _133  and  _134
REMARK   60  A    between atoms: _133  and  _136
REMARK   61  A    between atoms: _136  and  _137
REMARK   62  A    between atoms: _140  and  _142
REMARK   63  A    between atoms: _142  and  _143
REMARK   64  A    between atoms: _145  and  _147
REMARK   65  A    between atoms: _147  and  _148
REMARK   66  A    between atoms: _150  and  _152
REMARK   67  A    between atoms: _152  and  _153
REMARK   68  A    between atoms: _152  and  _155
REMARK   69  A    between atoms: _155  and  _156
REMARK   70  A    between atoms: _159  and  _161
REMARK   71  A    between atoms: _161  and  _162
REMARK   72  A    between atoms: _164  and  _166
REMARK   73  A    between atoms: _166  and  _167
REMARK   74  A    between atoms: _169  and  _171
REMARK   75  A    between atoms: _171  and  _172
REMARK   76  A    between atoms: _171  and  _174
REMARK   77  A    between atoms: _174  and  _175
REMARK   78  A    between atoms: _181  and  _183
REMARK   79  A    between atoms: _183  and  _184
REMARK   80  A    between atoms: _183  and  _186
REMARK   81  A    between atoms: _186  and  _187
REMARK   82  A    between atoms: _190  and  _192
REMARK   83  A    between atoms: _192  and  _193
REMARK   84  A    between atoms: _192  and  _195
REMARK   85  A    between atoms: _198  and  _200
REMARK   86  A    between atoms: _200  and  _201
REMARK   87  A    between atoms: _200  and  _203
REMARK   88  A    between atoms: _203  and  _204
REMARK   89  A    between atoms: _207  and  _209
REMARK   90  A    between atoms: _209  and  _210
REMARK   91  A    between atoms: _209  and  _212
REMARK   92  A    between atoms: _212  and  _213
REMARK   93  A    between atoms: _217  and  _218
REMARK   94  A    between atoms: _223  and  _225
REMARK   95  A    between atoms: _225  and  _226
REMARK   96  A    between atoms: _225  and  _228
REMARK   97  A    between atoms: _231  and  _233
REMARK   98  A    between atoms: _233  and  _234
REMARK   99  A    between atoms: _233  and  _236
REMARK  100  A    between atoms: _236  and  _237
REMARK  101  A    between atoms: _242  and  _244
REMARK  102  A    between atoms: _244  and  _245
REMARK  103  A    between atoms: _244  and  _247
REMARK  104  A    between atoms: _247  and  _248
REMARK  105  A    between atoms: _251  and  _253
REMARK  106  A    between atoms: _253  and  _254
REMARK  107  A    between atoms: _253  and  _256
REMARK  108  A    between atoms: _256  and  _257
REMARK  109  A    between atoms: _260  and  _262
REMARK  110  A    between atoms: _262  and  _263
REMARK  111  A    between atoms: _265  and  _267
REMARK  112  A    between atoms: _267  and  _268
REMARK  113  A    between atoms: _267  and  _270
REMARK  114  A    between atoms: _270  and  _271
REMARK  115  A    between atoms: _271  and  _272
REMARK  116  A    between atoms: _272  and  _273
REMARK  117  A    between atoms: _282  and  _284
REMARK  118  A    between atoms: _284  and  _285
REMARK  119  A    between atoms: _284  and  _287
REMARK  120  A    between atoms: _288  and  _289
REMARK  121  A    between atoms: _289  and  _290
REMARK  122  A    between atoms: _299  and  _301
REMARK  123  A    between atoms: _301  and  _302
REMARK  124  A    between atoms: _301  and  _304
REMARK  125  A    between atoms: _304  and  _305
REMARK  126  A    between atoms: _308  and  _310
REMARK  127  A    between atoms: _310  and  _311
REMARK  128  A    between atoms: _310  and  _313
REMARK  129  A    between atoms: _313  and  _314
REMARK  130  A    between atoms: _317  and  _319
REMARK  131  A    between atoms: _319  and  _320
REMARK  132  A    between atoms: _319  and  _322
REMARK  133  A    between atoms: _322  and  _323
REMARK  134  A    between atoms: _326  and  _328
REMARK  135  A    between atoms: _328  and  _329
REMARK  136  A    between atoms: _328  and  _331
REMARK  137  A    between atoms: _331  and  _332
REMARK  138  A    between atoms: _335  and  _337
REMARK  139  A    between atoms: _337  and  _338
REMARK  140  A    between atoms: _340  and  _342
REMARK  141  A    between atoms: _342  and  _343
REMARK  142  A    between atoms: _346  and  _348
REMARK  143  A    between atoms: _348  and  _349
REMARK  144  A    between atoms: _348  and  _351
REMARK  145  A    between atoms: _351  and  _352
REMARK  146  A    between atoms: _355  and  _357
REMARK  147  A    between atoms: _357  and  _358
REMARK  148  A    between atoms: _357  and  _360
REMARK  149  A    between atoms: _360  and  _361
REMARK  150  A    between atoms: _364  and  _366
REMARK  151  A    between atoms: _366  and  _367
REMARK  152  A    between atoms: _366  and  _369
REMARK  153  A    between atoms: _369  and  _370
REMARK  154  A    between atoms: _373  and  _375
REMARK  155  A    between atoms: _375  and  _376
REMARK  156  A    between atoms: _375  and  _378
REMARK  157  A    between atoms: _381  and  _383
REMARK  158  A    between atoms: _383  and  _384
REMARK  159  A    between atoms: _383  and  _386
REMARK  160  A    between atoms: _386  and  _387
REMARK  161  A    between atoms: _390  and  _392
REMARK  162  A    between atoms: _392  and  _393
REMARK  163  A    between atoms: _392  and  _395
REMARK  164  A    between atoms: _395  and  _396
REMARK  165  A    between atoms: _396  and  _397
REMARK  166  A    between atoms: _397  and  _398
REMARK  167  A    between atoms: _398  and  _399
REMARK  168  A    between atoms: _403  and  _405
REMARK  169  A    between atoms: _405  and  _406
REMARK  170  A    between atoms: _405  and  _408
REMARK  171  A    between atoms: _408  and  _409
REMARK  172  A    between atoms: _409  and  _410
REMARK  173  A    between atoms: _412  and  _414
REMARK  174  A    between atoms: _414  and  _415
REMARK  175  A    between atoms: _414  and  _417
REMARK  176  A    between atoms: _417  and  _418
REMARK  177  A    between atoms: _421  and  _423
REMARK  178  A    between atoms: _423  and  _424
REMARK  179  A    between atoms: _426  and  _428
REMARK  180  A    between atoms: _428  and  _429
REMARK  181  A    between atoms: _431  and  _433
REMARK  182  A    between atoms: _433  and  _434
REMARK  183  A    between atoms: _433  and  _436
REMARK  184  A    between atoms: _436  and  _437
REMARK  185  A    between atoms: _440  and  _442
REMARK  186  A    between atoms: _442  and  _443
REMARK  187  A    between atoms: _445  and  _447
REMARK  188  A    between atoms: _447  and  _448
REMARK  189  A    between atoms: _450  and  _452
REMARK  190  A    between atoms: _452  and  _453
REMARK  191  A    between atoms: _452  and  _455
REMARK  192  A    between atoms: _455  and  _456
REMARK  193  A    between atoms: _462  and  _464
REMARK  194  A    between atoms: _464  and  _465
REMARK  195  A    between atoms: _464  and  _467
REMARK  196  A    between atoms: _467  and  _468
REMARK  197  A    between atoms: _471  and  _473
REMARK  198  A    between atoms: _473  and  _474
REMARK  199  A    between atoms: _473  and  _476
REMARK  200  A    between atoms: _479  and  _481
REMARK  201  A    between atoms: _481  and  _482
REMARK  202  A    between atoms: _481  and  _484
REMARK  203  A    between atoms: _484  and  _485
REMARK  204  A    between atoms: _488  and  _490
REMARK  205  A    between atoms: _490  and  _491
REMARK  206  A    between atoms: _490  and  _493
REMARK  207  A    between atoms: _493  and  _494
REMARK  208  A    between atoms: _498  and  _499
REMARK  209  A    between atoms: _504  and  _506
REMARK  210  A    between atoms: _506  and  _507
REMARK  211  A    between atoms: _506  and  _509
REMARK  212  A    between atoms: _512  and  _514
REMARK  213  A    between atoms: _514  and  _515
REMARK  214  A    between atoms: _514  and  _517
REMARK  215  A    between atoms: _517  and  _518
REMARK  216  A    between atoms: _523  and  _525
REMARK  217  A    between atoms: _525  and  _526
REMARK  218  A    between atoms: _525  and  _528
REMARK  219  A    between atoms: _528  and  _529
REMARK  220  A    between atoms: _532  and  _534
REMARK  221  A    between atoms: _534  and  _535
REMARK  222  A    between atoms: _534  and  _537
REMARK  223  A    between atoms: _537  and  _538
REMARK  224  A    between atoms: _541  and  _543
REMARK  225  A    between atoms: _543  and  _544
REMARK  226  A    between atoms: _546  and  _548
REMARK  227  A    between atoms: _548  and  _549
REMARK  228  A    between atoms: _548  and  _551
REMARK  229  A    between atoms: _551  and  _552
REMARK  230  A    between atoms: _552  and  _553
REMARK  231  A    between atoms: _553  and  _554
REMARK  232  A    between atoms: _563  and  _565
REMARK  233  A    between atoms: _565  and  _566
REMARK  234  A    between atoms: _565  and  _568
REMARK  235  A    between atoms: _568  and  _569
REMARK                            x       y       z     vdW  Elec       q    Type
REMARK                         _______ _______ _______ _____ _____    ______ ____
ROOT
ATOM      1  O   HOH     1      29.706  25.375   6.029  0.00  0.00    +0.000 OA
ENDROOT
TORSDOF 0
REMARK  Name = ../refined-set-2016/1sdt/1sdt_pocket.pdb
REMARK  235 active torsions:
REMARK  status: ('A' for Active; 'I' for Inactive)
REMARK    1  A    between atoms: _1  and  _3
REMARK    2  A    between atoms: _3  and  _4
REMARK    3  A    between atoms: _3  and  _6
REMARK    4  A    between atoms: _6  and  _7
REMARK    5  A    between atoms: _7  and  _8
REMARK    6  A    between atoms: _8  and  _9
REMARK    7  A    between atoms: _18  and  _20
REMARK    8  A    between atoms: _20  and  _21
REMARK    9  A    between atoms: _20  and  _23
REMARK   10  A    between atoms: _23  and  _24
REMARK   11  A    between atoms: _27  and  _29
REMARK   12  A    between atoms: _29  and  _30
REMARK   13  A    between atoms: _29  and  _32
REMARK   14  A    between atoms: _32  and  _33
REMARK   15  A    between atoms: _36  and  _38
REMARK   16  A    between atoms: _38  and  _39
REMARK   17  A    between atoms: _38  and  _41
REMARK   18  A    between atoms: _41  and  _42
REMARK   19  A    between atoms: _45  and  _47
REMARK   20  A    between atoms: _47  and  _48
REMARK   21  A    between atoms: _47  and  _50
REMARK   22  A    between atoms: _50  and  _51
REMARK   23  A    between atoms: _54  and  _56
REMARK   24  A    between atoms: _56  and  _57
REMARK   25  A    between atoms: _56  and  _59
REMARK   26  A    between atoms: _59  and  _60
REMARK   27  A    between atoms: _63  and  _65
REMARK   28  A    between atoms: _65  and  _66
REMARK   29  A    between atoms: _68  and  _70
REMARK   30  A    between atoms: _70  and  _71
REMARK   31  A    between atoms: _74  and  _76
REMARK   32  A    between atoms: _76  and  _77
REMARK   33  A    between atoms: _76  and  _79
REMARK   34  A    between atoms: _79  and  _80
REMARK   35  A    between atoms: _83  and  _85
REMARK   36  A    between atoms: _85  and  _86
REMARK   37  A    between atoms: _85  and  _88
REMARK   38  A    between atoms: _88  and  _89
REMARK   39  A    between atoms: _92  and  _94
REMARK   40  A    between atoms: _94  and  _95
REMARK   41  A    between atoms: _94  and  _97
REMARK   42  A    between atoms: _97  and  _98
REMARK   43  A    between atoms: _101  and  _103
REMARK   44  A    between atoms: _103  and  _104
REMARK   45  A    between atoms: _103  and  _106
REMARK   46  A    between atoms: _109  and  _111
REMARK   47  A    between atoms: _111  and  _112
REMARK   48  A    between atoms: _111  and  _114
REMARK   49  A    between atoms: _114  and  _115
REMARK   50  A    between atoms: _115  and  _116
REMARK   51  A    between atoms: _116  and  _117
REMARK   52  A    between atoms: _117  and  _118
REMARK   53  A    between atoms: _122  and  _124
REMARK   54  A    between atoms: _124  and  _125
REMARK   55  A    between atoms: _124  and  _127
REMARK   56  A    between atoms: _127  and  _128
REMARK   57  A    between atoms: _128  and  _129
REMARK   58  A    between atoms: _131  and  _133
REMARK   59  A    between atoms: _133  and  _134
REMARK   60  A    between atoms: _133  and  _136
REMARK   61  A    between atoms: _136  and  _137
REMARK   62  A    between atoms: _140  and  _142
REMARK   63  A    between atoms: _142  and  _143
REMARK   64  A    between atoms: _145  and  _147
REMARK   65  A    between atoms: _147  and  _148
REMARK   66  A    between atoms: _150  and  _152
REMARK   67  A    between atoms: _152  and  _153
REMARK   68  A    between atoms: _152  and  _155
REMARK   69  A    between atoms: _155  and  _156
REMARK   70  A    between atoms: _159  and  _161
REMARK   71  A    between atoms: _161  and  _162
REMARK   72  A    between atoms: _164  and  _166
REMARK   73  A    between atoms: _166  and  _167
REMARK   74  A    between atoms: _169  and  _171
REMARK   75  A    between atoms: _171  and  _172
REMARK   76  A    between atoms: _171  and  _174
REMARK   77  A    between atoms: _174  and  _175
REMARK   78  A    between atoms: _181  and  _183
REMARK   79  A    between atoms: _183  and  _184
REMARK   80  A    between atoms: _183  and  _186
REMARK   81  A    between atoms: _186  and  _187
REMARK   82  A    between atoms: _190  and  _192
REMARK   83  A    between atoms: _192  and  _193
REMARK   84  A    between atoms: _192  and  _195
REMARK   85  A    between atoms: _198  and  _200
REMARK   86  A    between atoms: _200  and  _201
REMARK   87  A    between atoms: _200  and  _203
REMARK   88  A    between atoms: _203  and  _204
REMARK   89  A    between atoms: _207  and  _209
REMARK   90  A    between atoms: _209  and  _210
REMARK   91  A    between atoms: _209  and  _212
REMARK   92  A    between atoms: _212  and  _213
REMARK   93  A    between atoms: _217  and  _218
REMARK   94  A    between atoms: _223  and  _225
REMARK   95  A    between atoms: _225  and  _226
REMARK   96  A    between atoms: _225  and  _228
REMARK   97  A    between atoms: _231  and  _233
REMARK   98  A    between atoms: _233  and  _234
REMARK   99  A    between atoms: _233  and  _236
REMARK  100  A    between atoms: _236  and  _237
REMARK  101  A    between atoms: _242  and  _244
REMARK  102  A    between atoms: _244  and  _245
REMARK  103  A    between atoms: _244  and  _247
REMARK  104  A    between atoms: _247  and  _248
REMARK  105  A    between atoms: _251  and  _253
REMARK  106  A    between atoms: _253  and  _254
REMARK  107  A    between atoms: _253  and  _256
REMARK  108  A    between atoms: _256  and  _257
REMARK  109  A    between atoms: _260  and  _262
REMARK  110  A    between atoms: _262  and  _263
REMARK  111  A    between atoms: _265  and  _267
REMARK  112  A    between atoms: _267  and  _268
REMARK  113  A    between atoms: _267  and  _270
REMARK  114  A    between atoms: _270  and  _271
REMARK  115  A    between atoms: _271  and  _272
REMARK  116  A    between atoms: _272  and  _273
REMARK  117  A    between atoms: _282  and  _284
REMARK  118  A    between atoms: _284  and  _285
REMARK  119  A    between atoms: _284  and  _287
REMARK  120  A    between atoms: _288  and  _289
REMARK  121  A    between atoms: _289  and  _290
REMARK  122  A    between atoms: _299  and  _301
REMARK  123  A    between atoms: _301  and  _302
REMARK  124  A    between atoms: _301  and  _304
REMARK  125  A    between atoms: _304  and  _305
REMARK  126  A    between atoms: _308  and  _310
REMARK  127  A    between atoms: _310  and  _311
REMARK  128  A    between atoms: _310  and  _313
REMARK  129  A    between atoms: _313  and  _314
REMARK  130  A    between atoms: _317  and  _319
REMARK  131  A    between atoms: _319  and  _320
REMARK  132  A    between atoms: _319  and  _322
REMARK  133  A    between atoms: _322  and  _323
REMARK  134  A    between atoms: _326  and  _328
REMARK  135  A    between atoms: _328  and  _329
REMARK  136  A    between atoms: _328  and  _331
REMARK  137  A    between atoms: _331  and  _332
REMARK  138  A    between atoms: _335  and  _337
REMARK  139  A    between atoms: _337  and  _338
REMARK  140  A    between atoms: _340  and  _342
REMARK  141  A    between atoms: _342  and  _343
REMARK  142  A    between atoms: _346  and  _348
REMARK  143  A    between atoms: _348  and  _349
REMARK  144  A    between atoms: _348  and  _351
REMARK  145  A    between atoms: _351  and  _352
REMARK  146  A    between atoms: _355  and  _357
REMARK  147  A    between atoms: _357  and  _358
REMARK  148  A    between atoms: _357  and  _360
REMARK  149  A    between atoms: _360  and  _361
REMARK  150  A    between atoms: _364  and  _366
REMARK  151  A    between atoms: _366  and  _367
REMARK  152  A    between atoms: _366  and  _369
REMARK  153  A    between atoms: _369  and  _370
REMARK  154  A    between atoms: _373  and  _375
REMARK  155  A    between atoms: _375  and  _376
REMARK  156  A    between atoms: _375  and  _378
REMARK  157  A    between atoms: _381  and  _383
REMARK  158  A    between atoms: _383  and  _384
REMARK  159  A    between atoms: _383  and  _386
REMARK  160  A    between atoms: _386  and  _387
REMARK  161  A    between atoms: _390  and  _392
REMARK  162  A    between atoms: _392  and  _393
REMARK  163  A    between atoms: _392  and  _395
REMARK  164  A    between atoms: _395  and  _396
REMARK  165  A    between atoms: _396  and  _397
REMARK  166  A    between atoms: _397  and  _398
REMARK  167  A    between atoms: _398  and  _399
REMARK  168  A    between atoms: _403  and  _405
REMARK  169  A    between atoms: _405  and  _406
REMARK  170  A    between atoms: _405  and  _408
REMARK  171  A    between atoms: _408  and  _409
REMARK  172  A    between atoms: _409  and  _410
REMARK  173  A    between atoms: _412  and  _414
REMARK  174  A    between atoms: _414  and  _415
REMARK  175  A    between atoms: _414  and  _417
REMARK  176  A    between atoms: _417  and  _418
REMARK  177  A    between atoms: _421  and  _423
REMARK  178  A    between atoms: _423  and  _424
REMARK  179  A    between atoms: _426  and  _428
REMARK  180  A    between atoms: _428  and  _429
REMARK  181  A    between atoms: _431  and  _433
REMARK  182  A    between atoms: _433  and  _434
REMARK  183  A    between atoms: _433  and  _436
REMARK  184  A    between atoms: _436  and  _437
REMARK  185  A    between atoms: _440  and  _442
REMARK  186  A    between atoms: _442  and  _443
REMARK  187  A    between atoms: _445  and  _447
REMARK  188  A    between atoms: _447  and  _448
REMARK  189  A    between atoms: _450  and  _452
REMARK  190  A    between atoms: _452  and  _453
REMARK  191  A    between atoms: _452  and  _455
REMARK  192  A    between atoms: _455  and  _456
REMARK  193  A    between atoms: _462  and  _464
REMARK  194  A    between atoms: _464  and  _465
REMARK  195  A    between atoms: _464  and  _467
REMARK  196  A    between atoms: _467  and  _468
REMARK  197  A    between atoms: _471  and  _473
REMARK  198  A    between atoms: _473  and  _474
REMARK  199  A    between atoms: _473  and  _476
REMARK  200  A    between atoms: _479  and  _481
REMARK  201  A    between atoms: _481  and  _482
REMARK  202  A    between atoms: _481  and  _484
REMARK  203  A    between atoms: _484  and  _485
REMARK  204  A    between atoms: _488  and  _490
REMARK  205  A    between atoms: _490  and  _491
REMARK  206  A    between atoms: _490  and  _493
REMARK  207  A    between atoms: _493  and  _494
REMARK  208  A    between atoms: _498  and  _499
REMARK  209  A    between atoms: _504  and  _506
REMARK  210  A    between atoms: _506  and  _507
REMARK  211  A    between atoms: _506  and  _509
REMARK  212  A    between atoms: _512  and  _514
REMARK  213  A    between atoms: _514  and  _515
REMARK  214  A    between atoms: _514  and  _517
REMARK  215  A    between atoms: _517  and  _518
REMARK  216  A    between atoms: _523  and  _525
REMARK  217  A    between atoms: _525  and  _526
REMARK  218  A    between atoms: _525  and  _528
REMARK  219  A    between atoms: _528  and  _529
REMARK  220  A    between atoms: _532  and  _534
REMARK  221  A    between atoms: _534  and  _535
REMARK  222  A    between atoms: _534  and  _537
REMARK  223  A    between atoms: _537  and  _538
REMARK  224  A    between atoms: _541  and  _543
REMARK  225  A    between atoms: _543  and  _544
REMARK  226  A    between atoms: _546  and  _548
REMARK  227  A    between atoms: _548  and  _549
REMARK  228  A    between atoms: _548  and  _551
REMARK  229  A    between atoms: _551  and  _552
REMARK  230  A    between atoms: _552  and  _553
REMARK  231  A    between atoms: _553  and  _554
REMARK  232  A    between atoms: _563  and  _565
REMARK  233  A    between atoms: _565  and  _566
REMARK  234  A    between atoms: _565  and  _568
REMARK  235  A    between atoms: _568  and  _569
REMARK                            x       y       z     vdW  Elec       q    Type
REMARK                         _______ _______ _______ _____ _____    ______ ____
ROOT
ATOM      1  O   HOH     1      21.916   6.344  12.011  0.00  0.00    +0.000 OA
ENDROOT
TORSDOF 0
REMARK  Name = ../refined-set-2016/1sdt/1sdt_pocket.pdb
REMARK  235 active torsions:
REMARK  status: ('A' for Active; 'I' for Inactive)
REMARK    1  A    between atoms: _1  and  _3
REMARK    2  A    between atoms: _3  and  _4
REMARK    3  A    between atoms: _3  and  _6
REMARK    4  A    between atoms: _6  and  _7
REMARK    5  A    between atoms: _7  and  _8
REMARK    6  A    between atoms: _8  and  _9
REMARK    7  A    between atoms: _18  and  _20
REMARK    8  A    between atoms: _20  and  _21
REMARK    9  A    between atoms: _20  and  _23
REMARK   10  A    between atoms: _23  and  _24
REMARK   11  A    between atoms: _27  and  _29
REMARK   12  A    between atoms: _29  and  _30
REMARK   13  A    between atoms: _29  and  _32
REMARK   14  A    between atoms: _32  and  _33
REMARK   15  A    between atoms: _36  and  _38
REMARK   16  A    between atoms: _38  and  _39
REMARK   17  A    between atoms: _38  and  _41
REMARK   18  A    between atoms: _41  and  _42
REMARK   19  A    between atoms: _45  and  _47
REMARK   20  A    between atoms: _47  and  _48
REMARK   21  A    between atoms: _47  and  _50
REMARK   22  A    between atoms: _50  and  _51
REMARK   23  A    between atoms: _54  and  _56
REMARK   24  A    between atoms: _56  and  _57
REMARK   25  A    between atoms: _56  and  _59
REMARK   26  A    between atoms: _59  and  _60
REMARK   27  A    between atoms: _63  and  _65
REMARK   28  A    between atoms: _65  and  _66
REMARK   29  A    between atoms: _68  and  _70
REMARK   30  A    between atoms: _70  and  _71
REMARK   31  A    between atoms: _74  and  _76
REMARK   32  A    between atoms: _76  and  _77
REMARK   33  A    between atoms: _76  and  _79
REMARK   34  A    between atoms: _79  and  _80
REMARK   35  A    between atoms: _83  and  _85
REMARK   36  A    between atoms: _85  and  _86
REMARK   37  A    between atoms: _85  and  _88
REMARK   38  A    between atoms: _88  and  _89
REMARK   39  A    between atoms: _92  and  _94
REMARK   40  A    between atoms: _94  and  _95
REMARK   41  A    between atoms: _94  and  _97
REMARK   42  A    between atoms: _97  and  _98
REMARK   43  A    between atoms: _101  and  _103
REMARK   44  A    between atoms: _103  and  _104
REMARK   45  A    between atoms: _103  and  _106
REMARK   46  A    between atoms: _109  and  _111
REMARK   47  A    between atoms: _111  and  _112
REMARK   48  A    between atoms: _111  and  _114
REMARK   49  A    between atoms: _114  and  _115
REMARK   50  A    between atoms: _115  and  _116
REMARK   51  A    between atoms: _116  and  _117
REMARK   52  A    between atoms: _117  and  _118
REMARK   53  A    between atoms: _122  and  _124
REMARK   54  A    between atoms: _124  and  _125
REMARK   55  A    between atoms: _124  and  _127
REMARK   56  A    between atoms: _127  and  _128
REMARK   57  A    between atoms: _128  and  _129
REMARK   58  A    between atoms: _131  and  _133
REMARK   59  A    between atoms: _133  and  _134
REMARK   60  A    between atoms: _133  and  _136
REMARK   61  A    between atoms: _136  and  _137
REMARK   62  A    between atoms: _140  and  _142
REMARK   63  A    between atoms: _142  and  _143
REMARK   64  A    between atoms: _145  and  _147
REMARK   65  A    between atoms: _147  and  _148
REMARK   66  A    between atoms: _150  and  _152
REMARK   67  A    between atoms: _152  and  _153
REMARK   68  A    between atoms: _152  and  _155
REMARK   69  A    between atoms: _155  and  _156
REMARK   70  A    between atoms: _159  and  _161
REMARK   71  A    between atoms: _161  and  _162
REMARK   72  A    between atoms: _164  and  _166
REMARK   73  A    between atoms: _166  and  _167
REMARK   74  A    between atoms: _169  and  _171
REMARK   75  A    between atoms: _171  and  _172
REMARK   76  A    between atoms: _171  and  _174
REMARK   77  A    between atoms: _174  and  _175
REMARK   78  A    between atoms: _181  and  _183
REMARK   79  A    between atoms: _183  and  _184
REMARK   80  A    between atoms: _183  and  _186
REMARK   81  A    between atoms: _186  and  _187
REMARK   82  A    between atoms: _190  and  _192
REMARK   83  A    between atoms: _192  and  _193
REMARK   84  A    between atoms: _192  and  _195
REMARK   85  A    between atoms: _198  and  _200
REMARK   86  A    between atoms: _200  and  _201
REMARK   87  A    between atoms: _200  and  _203
REMARK   88  A    between atoms: _203  and  _204
REMARK   89  A    between atoms: _207  and  _209
REMARK   90  A    between atoms: _209  and  _210
REMARK   91  A    between atoms: _209  and  _212
REMARK   92  A    between atoms: _212  and  _213
REMARK   93  A    between atoms: _217  and  _218
REMARK   94  A    between atoms: _223  and  _225
REMARK   95  A    between atoms: _225  and  _226
REMARK   96  A    between atoms: _225  and  _228
REMARK   97  A    between atoms: _231  and  _233
REMARK   98  A    between atoms: _233  and  _234
REMARK   99  A    between atoms: _233  and  _236
REMARK  100  A    between atoms: _236  and  _237
REMARK  101  A    between atoms: _242  and  _244
REMARK  102  A    between atoms: _244  and  _245
REMARK  103  A    between atoms: _244  and  _247
REMARK  104  A    between atoms: _247  and  _248
REMARK  105  A    between atoms: _251  and  _253
REMARK  106  A    between atoms: _253  and  _254
REMARK  107  A    between atoms: _253  and  _256
REMARK  108  A    between atoms: _256  and  _257
REMARK  109  A    between atoms: _260  and  _262
REMARK  110  A    between atoms: _262  and  _263
REMARK  111  A    between atoms: _265  and  _267
REMARK  112  A    between atoms: _267  and  _268
REMARK  113  A    between atoms: _267  and  _270
REMARK  114  A    between atoms: _270  and  _271
REMARK  115  A    between atoms: _271  and  _272
REMARK  116  A    between atoms: _272  and  _273
REMARK  117  A    between atoms: _282  and  _284
REMARK  118  A    between atoms: _284  and  _285
REMARK  119  A    between atoms: _284  and  _287
REMARK  120  A    between atoms: _288  and  _289
REMARK  121  A    between atoms: _289  and  _290
REMARK  122  A    between atoms: _299  and  _301
REMARK  123  A    between atoms: _301  and  _302
REMARK  124  A    between atoms: _301  and  _304
REMARK  125  A    between atoms: _304  and  _305
REMARK  126  A    between atoms: _308  and  _310
REMARK  127  A    between atoms: _310  and  _311
REMARK  128  A    between atoms: _310  and  _313
REMARK  129  A    between atoms: _313  and  _314
REMARK  130  A    between atoms: _317  and  _319
REMARK  131  A    between atoms: _319  and  _320
REMARK  132  A    between atoms: _319  and  _322
REMARK  133  A    between atoms: _322  and  _323
REMARK  134  A    between atoms: _326  and  _328
REMARK  135  A    between atoms: _328  and  _329
REMARK  136  A    between atoms: _328  and  _331
REMARK  137  A    between atoms: _331  and  _332
REMARK  138  A    between atoms: _335  and  _337
REMARK  139  A    between atoms: _337  and  _338
REMARK  140  A    between atoms: _340  and  _342
REMARK  141  A    between atoms: _342  and  _343
REMARK  142  A    between atoms: _346  and  _348
REMARK  143  A    between atoms: _348  and  _349
REMARK  144  A    between atoms: _348  and  _351
REMARK  145  A    between atoms: _351  and  _352
REMARK  146  A    between atoms: _355  and  _357
REMARK  147  A    between atoms: _357  and  _358
REMARK  148  A    between atoms: _357  and  _360
REMARK  149  A    between atoms: _360  and  _361
REMARK  150  A    between atoms: _364  and  _366
REMARK  151  A    between atoms: _366  and  _367
REMARK  152  A    between atoms: _366  and  _369
REMARK  153  A    between atoms: _369  and  _370
REMARK  154  A    between atoms: _373  and  _375
REMARK  155  A    between atoms: _375  and  _376
REMARK  156  A    between atoms: _375  and  _378
REMARK  157  A    between atoms: _381  and  _383
REMARK  158  A    between atoms: _383  and  _384
REMARK  159  A    between atoms: _383  and  _386
REMARK  160  A    between atoms: _386  and  _387
REMARK  161  A    between atoms: _390  and  _392
REMARK  162  A    between atoms: _392  and  _393
REMARK  163  A    between atoms: _392  and  _395
REMARK  164  A    between atoms: _395  and  _396
REMARK  165  A    between atoms: _396  and  _397
REMARK  166  A    between atoms: _397  and  _398
REMARK  167  A    between atoms: _398  and  _399
REMARK  168  A    between atoms: _403  and  _405
REMARK  169  A    between atoms: _405  and  _406
REMARK  170  A    between atoms: _405  and  _408
REMARK  171  A    between atoms: _408  and  _409
REMARK  172  A    between atoms: _409  and  _410
REMARK  173  A    between atoms: _412  and  _414
REMARK  174  A    between atoms: _414  and  _415
REMARK  175  A    between atoms: _414  and  _417
REMARK  176  A    between atoms: _417  and  _418
REMARK  177  A    between atoms: _421  and  _423
REMARK  178  A    between atoms: _423  and  _424
REMARK  179  A    between atoms: _426  and  _428
REMARK  180  A    between atoms: _428  and  _429
REMARK  181  A    between atoms: _431  and  _433
REMARK  182  A    between atoms: _433  and  _434
REMARK  183  A    between atoms: _433  and  _436
REMARK  184  A    between atoms: _436  and  _437
REMARK  185  A    between atoms: _440  and  _442
REMARK  186  A    between atoms: _442  and  _443
REMARK  187  A    between atoms: _445  and  _447
REMARK  188  A    between atoms: _447  and  _448
REMARK  189  A    between atoms: _450  and  _452
REMARK  190  A    between atoms: _452  and  _453
REMARK  191  A    between atoms: _452  and  _455
REMARK  192  A    between atoms: _455  and  _456
REMARK  193  A    between atoms: _462  and  _464
REMARK  194  A    between atoms: _464  and  _465
REMARK  195  A    between atoms: _464  and  _467
REMARK  196  A    between atoms: _467  and  _468
REMARK  197  A    between atoms: _471  and  _473
REMARK  198  A    between atoms: _473  and  _474
REMARK  199  A    between atoms: _473  and  _476
REMARK  200  A    between atoms: _479  and  _481
REMARK  201  A    between atoms: _481  and  _482
REMARK  202  A    between atoms: _481  and  _484
REMARK  203  A    between atoms: _484  and  _485
REMARK  204  A    between atoms: _488  and  _490
REMARK  205  A    between atoms: _490  and  _491
REMARK  206  A    between atoms: _490  and  _493
REMARK  207  A    between atoms: _493  and  _494
REMARK  208  A    between atoms: _498  and  _499
REMARK  209  A    between atoms: _504  and  _506
REMARK  210  A    between atoms: _506  and  _507
REMARK  211  A    between atoms: _506  and  _509
REMARK  212  A    between atoms: _512  and  _514
REMARK  213  A    between atoms: _514  and  _515
REMARK  214  A    between atoms: _514  and  _517
REMARK  215  A    between atoms: _517  and  _518
REMARK  216  A    between atoms: _523  and  _525
REMARK  217  A    between atoms: _525  and  _526
REMARK  218  A    between atoms: _525  and  _528
REMARK  219  A    between atoms: _528  and  _529
REMARK  220  A    between atoms: _532  and  _534
REMARK  221  A    between atoms: _534  and  _535
REMARK  222  A    between atoms: _534  and  _537
REMARK  223  A    between atoms: _537  and  _538
REMARK  224  A    between atoms: _541  and  _543
REMARK  225  A    between atoms: _543  and  _544
REMARK  226  A    between atoms: _546  and  _548
REMARK  227  A    between atoms: _548  and  _549
REMARK  228  A    between atoms: _548  and  _551
REMARK  229  A    between atoms: _551  and  _552
REMARK  230  A    between atoms: _552  and  _553
REMARK  231  A    between atoms: _553  and  _554
REMARK  232  A    between atoms: _563  and  _565
REMARK  233  A    between atoms: _565  and  _566
REMARK  234  A    between atoms: _565  and  _568
REMARK  235  A    between atoms: _568  and  _569
REMARK                            x       y       z     vdW  Elec       q    Type
REMARK                         _______ _______ _______ _____ _____    ______ ____
ROOT
ATOM      1  O   HOH     1      25.706  25.991   7.409  0.00  0.00    +0.000 OA
ENDROOT
TORSDOF 0
REMARK  Name = ../refined-set-2016/1sdt/1sdt_pocket.pdb
REMARK  235 active torsions:
REMARK  status: ('A' for Active; 'I' for Inactive)
REMARK    1  A    between atoms: _1  and  _3
REMARK    2  A    between atoms: _3  and  _4
REMARK    3  A    between atoms: _3  and  _6
REMARK    4  A    between atoms: _6  and  _7
REMARK    5  A    between atoms: _7  and  _8
REMARK    6  A    between atoms: _8  and  _9
REMARK    7  A    between atoms: _18  and  _20
REMARK    8  A    between atoms: _20  and  _21
REMARK    9  A    between atoms: _20  and  _23
REMARK   10  A    between atoms: _23  and  _24
REMARK   11  A    between atoms: _27  and  _29
REMARK   12  A    between atoms: _29  and  _30
REMARK   13  A    between atoms: _29  and  _32
REMARK   14  A    between atoms: _32  and  _33
REMARK   15  A    between atoms: _36  and  _38
REMARK   16  A    between atoms: _38  and  _39
REMARK   17  A    between atoms: _38  and  _41
REMARK   18  A    between atoms: _41  and  _42
REMARK   19  A    between atoms: _45  and  _47
REMARK   20  A    between atoms: _47  and  _48
REMARK   21  A    between atoms: _47  and  _50
REMARK   22  A    between atoms: _50  and  _51
REMARK   23  A    between atoms: _54  and  _56
REMARK   24  A    between atoms: _56  and  _57
REMARK   25  A    between atoms: _56  and  _59
REMARK   26  A    between atoms: _59  and  _60
REMARK   27  A    between atoms: _63  and  _65
REMARK   28  A    between atoms: _65  and  _66
REMARK   29  A    between atoms: _68  and  _70
REMARK   30  A    between atoms: _70  and  _71
REMARK   31  A    between atoms: _74  and  _76
REMARK   32  A    between atoms: _76  and  _77
REMARK   33  A    between atoms: _76  and  _79
REMARK   34  A    between atoms: _79  and  _80
REMARK   35  A    between atoms: _83  and  _85
REMARK   36  A    between atoms: _85  and  _86
REMARK   37  A    between atoms: _85  and  _88
REMARK   38  A    between atoms: _88  and  _89
REMARK   39  A    between atoms: _92  and  _94
REMARK   40  A    between atoms: _94  and  _95
REMARK   41  A    between atoms: _94  and  _97
REMARK   42  A    between atoms: _97  and  _98
REMARK   43  A    between atoms: _101  and  _103
REMARK   44  A    between atoms: _103  and  _104
REMARK   45  A    between atoms: _103  and  _106
REMARK   46  A    between atoms: _109  and  _111
REMARK   47  A    between atoms: _111  and  _112
REMARK   48  A    between atoms: _111  and  _114
REMARK   49  A    between atoms: _114  and  _115
REMARK   50  A    between atoms: _115  and  _116
REMARK   51  A    between atoms: _116  and  _117
REMARK   52  A    between atoms: _117  and  _118
REMARK   53  A    between atoms: _122  and  _124
REMARK   54  A    between atoms: _124  and  _125
REMARK   55  A    between atoms: _124  and  _127
REMARK   56  A    between atoms: _127  and  _128
REMARK   57  A    between atoms: _128  and  _129
REMARK   58  A    between atoms: _131  and  _133
REMARK   59  A    between atoms: _133  and  _134
REMARK   60  A    between atoms: _133  and  _136
REMARK   61  A    between atoms: _136  and  _137
REMARK   62  A    between atoms: _140  and  _142
REMARK   63  A    between atoms: _142  and  _143
REMARK   64  A    between atoms: _145  and  _147
REMARK   65  A    between atoms: _147  and  _148
REMARK   66  A    between atoms: _150  and  _152
REMARK   67  A    between atoms: _152  and  _153
REMARK   68  A    between atoms: _152  and  _155
REMARK   69  A    between atoms: _155  and  _156
REMARK   70  A    between atoms: _159  and  _161
REMARK   71  A    between atoms: _161  and  _162
REMARK   72  A    between atoms: _164  and  _166
REMARK   73  A    between atoms: _166  and  _167
REMARK   74  A    between atoms: _169  and  _171
REMARK   75  A    between atoms: _171  and  _172
REMARK   76  A    between atoms: _171  and  _174
REMARK   77  A    between atoms: _174  and  _175
REMARK   78  A    between atoms: _181  and  _183
REMARK   79  A    between atoms: _183  and  _184
REMARK   80  A    between atoms: _183  and  _186
REMARK   81  A    between atoms: _186  and  _187
REMARK   82  A    between atoms: _190  and  _192
REMARK   83  A    between atoms: _192  and  _193
REMARK   84  A    between atoms: _192  and  _195
REMARK   85  A    between atoms: _198  and  _200
REMARK   86  A    between atoms: _200  and  _201
REMARK   87  A    between atoms: _200  and  _203
REMARK   88  A    between atoms: _203  and  _204
REMARK   89  A    between atoms: _207  and  _209
REMARK   90  A    between atoms: _209  and  _210
REMARK   91  A    between atoms: _209  and  _212
REMARK   92  A    between atoms: _212  and  _213
REMARK   93  A    between atoms: _217  and  _218
REMARK   94  A    between atoms: _223  and  _225
REMARK   95  A    between atoms: _225  and  _226
REMARK   96  A    between atoms: _225  and  _228
REMARK   97  A    between atoms: _231  and  _233
REMARK   98  A    between atoms: _233  and  _234
REMARK   99  A    between atoms: _233  and  _236
REMARK  100  A    between atoms: _236  and  _237
REMARK  101  A    between atoms: _242  and  _244
REMARK  102  A    between atoms: _244  and  _245
REMARK  103  A    between atoms: _244  and  _247
REMARK  104  A    between atoms: _247  and  _248
REMARK  105  A    between atoms: _251  and  _253
REMARK  106  A    between atoms: _253  and  _254
REMARK  107  A    between atoms: _253  and  _256
REMARK  108  A    between atoms: _256  and  _257
REMARK  109  A    between atoms: _260  and  _262
REMARK  110  A    between atoms: _262  and  _263
REMARK  111  A    between atoms: _265  and  _267
REMARK  112  A    between atoms: _267  and  _268
REMARK  113  A    between atoms: _267  and  _270
REMARK  114  A    between atoms: _270  and  _271
REMARK  115  A    between atoms: _271  and  _272
REMARK  116  A    between atoms: _272  and  _273
REMARK  117  A    between atoms: _282  and  _284
REMARK  118  A    between atoms: _284  and  _285
REMARK  119  A    between atoms: _284  and  _287
REMARK  120  A    between atoms: _288  and  _289
REMARK  121  A    between atoms: _289  and  _290
REMARK  122  A    between atoms: _299  and  _301
REMARK  123  A    between atoms: _301  and  _302
REMARK  124  A    between atoms: _301  and  _304
REMARK  125  A    between atoms: _304  and  _305
REMARK  126  A    between atoms: _308  and  _310
REMARK  127  A    between atoms: _310  and  _311
REMARK  128  A    between atoms: _310  and  _313
REMARK  129  A    between atoms: _313  and  _314
REMARK  130  A    between atoms: _317  and  _319
REMARK  131  A    between atoms: _319  and  _320
REMARK  132  A    between atoms: _319  and  _322
REMARK  133  A    between atoms: _322  and  _323
REMARK  134  A    between atoms: _326  and  _328
REMARK  135  A    between atoms: _328  and  _329
REMARK  136  A    between atoms: _328  and  _331
REMARK  137  A    between atoms: _331  and  _332
REMARK  138  A    between atoms: _335  and  _337
REMARK  139  A    between atoms: _337  and  _338
REMARK  140  A    between atoms: _340  and  _342
REMARK  141  A    between atoms: _342  and  _343
REMARK  142  A    between atoms: _346  and  _348
REMARK  143  A    between atoms: _348  and  _349
REMARK  144  A    between atoms: _348  and  _351
REMARK  145  A    between atoms: _351  and  _352
REMARK  146  A    between atoms: _355  and  _357
REMARK  147  A    between atoms: _357  and  _358
REMARK  148  A    between atoms: _357  and  _360
REMARK  149  A    between atoms: _360  and  _361
REMARK  150  A    between atoms: _364  and  _366
REMARK  151  A    between atoms: _366  and  _367
REMARK  152  A    between atoms: _366  and  _369
REMARK  153  A    between atoms: _369  and  _370
REMARK  154  A    between atoms: _373  and  _375
REMARK  155  A    between atoms: _375  and  _376
REMARK  156  A    between atoms: _375  and  _378
REMARK  157  A    between atoms: _381  and  _383
REMARK  158  A    between atoms: _383  and  _384
REMARK  159  A    between atoms: _383  and  _386
REMARK  160  A    between atoms: _386  and  _387
REMARK  161  A    between atoms: _390  and  _392
REMARK  162  A    between atoms: _392  and  _393
REMARK  163  A    between atoms: _392  and  _395
REMARK  164  A    between atoms: _395  and  _396
REMARK  165  A    between atoms: _396  and  _397
REMARK  166  A    between atoms: _397  and  _398
REMARK  167  A    between atoms: _398  and  _399
REMARK  168  A    between atoms: _403  and  _405
REMARK  169  A    between atoms: _405  and  _406
REMARK  170  A    between atoms: _405  and  _408
REMARK  171  A    between atoms: _408  and  _409
REMARK  172  A    between atoms: _409  and  _410
REMARK  173  A    between atoms: _412  and  _414
REMARK  174  A    between atoms: _414  and  _415
REMARK  175  A    between atoms: _414  and  _417
REMARK  176  A    between atoms: _417  and  _418
REMARK  177  A    between atoms: _421  and  _423
REMARK  178  A    between atoms: _423  and  _424
REMARK  179  A    between atoms: _426  and  _428
REMARK  180  A    between atoms: _428  and  _429
REMARK  181  A    between atoms: _431  and  _433
REMARK  182  A    between atoms: _433  and  _434
REMARK  183  A    between atoms: _433  and  _436
REMARK  184  A    between atoms: _436  and  _437
REMARK  185  A    between atoms: _440  and  _442
REMARK  186  A    between atoms: _442  and  _443
REMARK  187  A    between atoms: _445  and  _447
REMARK  188  A    between atoms: _447  and  _448
REMARK  189  A    between atoms: _450  and  _452
REMARK  190  A    between atoms: _452  and  _453
REMARK  191  A    between atoms: _452  and  _455
REMARK  192  A    between atoms: _455  and  _456
REMARK  193  A    between atoms: _462  and  _464
REMARK  194  A    between atoms: _464  and  _465
REMARK  195  A    between atoms: _464  and  _467
REMARK  196  A    between atoms: _467  and  _468
REMARK  197  A    between atoms: _471  and  _473
REMARK  198  A    between atoms: _473  and  _474
REMARK  199  A    between atoms: _473  and  _476
REMARK  200  A    between atoms: _479  and  _481
REMARK  201  A    between atoms: _481  and  _482
REMARK  202  A    between atoms: _481  and  _484
REMARK  203  A    between atoms: _484  and  _485
REMARK  204  A    between atoms: _488  and  _490
REMARK  205  A    between atoms: _490  and  _491
REMARK  206  A    between atoms: _490  and  _493
REMARK  207  A    between atoms: _493  and  _494
REMARK  208  A    between atoms: _498  and  _499
REMARK  209  A    between atoms: _504  and  _506
REMARK  210  A    between atoms: _506  and  _507
REMARK  211  A    between atoms: _506  and  _509
REMARK  212  A    between atoms: _512  and  _514
REMARK  213  A    between atoms: _514  and  _515
REMARK  214  A    between atoms: _514  and  _517
REMARK  215  A    between atoms: _517  and  _518
REMARK  216  A    between atoms: _523  and  _525
REMARK  217  A    between atoms: _525  and  _526
REMARK  218  A    between atoms: _525  and  _528
REMARK  219  A    between atoms: _528  and  _529
REMARK  220  A    between atoms: _532  and  _534
REMARK  221  A    between atoms: _534  and  _535
REMARK  222  A    between atoms: _534  and  _537
REMARK  223  A    between atoms: _537  and  _538
REMARK  224  A    between atoms: _541  and  _543
REMARK  225  A    between atoms: _543  and  _544
REMARK  226  A    between atoms: _546  and  _548
REMARK  227  A    between atoms: _548  and  _549
REMARK  228  A    between atoms: _548  and  _551
REMARK  229  A    between atoms: _551  and  _552
REMARK  230  A    between atoms: _552  and  _553
REMARK  231  A    between atoms: _553  and  _554
REMARK  232  A    between atoms: _563  and  _565
REMARK  233  A    between atoms: _565  and  _566
REMARK  234  A    between atoms: _565  and  _568
REMARK  235  A    between atoms: _568  and  _569
REMARK                            x       y       z     vdW  Elec       q    Type
REMARK                         _______ _______ _______ _____ _____    ______ ____
ROOT
ATOM      1  O   HOH     1      34.133  23.023  10.939  0.00  0.00    +0.000 OA
ENDROOT
TORSDOF 0
REMARK  Name = ../refined-set-2016/1sdt/1sdt_pocket.pdb
REMARK  235 active torsions:
REMARK  status: ('A' for Active; 'I' for Inactive)
REMARK    1  A    between atoms: _1  and  _3
REMARK    2  A    between atoms: _3  and  _4
REMARK    3  A    between atoms: _3  and  _6
REMARK    4  A    between atoms: _6  and  _7
REMARK    5  A    between atoms: _7  and  _8
REMARK    6  A    between atoms: _8  and  _9
REMARK    7  A    between atoms: _18  and  _20
REMARK    8  A    between atoms: _20  and  _21
REMARK    9  A    between atoms: _20  and  _23
REMARK   10  A    between atoms: _23  and  _24
REMARK   11  A    between atoms: _27  and  _29
REMARK   12  A    between atoms: _29  and  _30
REMARK   13  A    between atoms: _29  and  _32
REMARK   14  A    between atoms: _32  and  _33
REMARK   15  A    between atoms: _36  and  _38
REMARK   16  A    between atoms: _38  and  _39
REMARK   17  A    between atoms: _38  and  _41
REMARK   18  A    between atoms: _41  and  _42
REMARK   19  A    between atoms: _45  and  _47
REMARK   20  A    between atoms: _47  and  _48
REMARK   21  A    between atoms: _47  and  _50
REMARK   22  A    between atoms: _50  and  _51
REMARK   23  A    between atoms: _54  and  _56
REMARK   24  A    between atoms: _56  and  _57
REMARK   25  A    between atoms: _56  and  _59
REMARK   26  A    between atoms: _59  and  _60
REMARK   27  A    between atoms: _63  and  _65
REMARK   28  A    between atoms: _65  and  _66
REMARK   29  A    between atoms: _68  and  _70
REMARK   30  A    between atoms: _70  and  _71
REMARK   31  A    between atoms: _74  and  _76
REMARK   32  A    between atoms: _76  and  _77
REMARK   33  A    between atoms: _76  and  _79
REMARK   34  A    between atoms: _79  and  _80
REMARK   35  A    between atoms: _83  and  _85
REMARK   36  A    between atoms: _85  and  _86
REMARK   37  A    between atoms: _85  and  _88
REMARK   38  A    between atoms: _88  and  _89
REMARK   39  A    between atoms: _92  and  _94
REMARK   40  A    between atoms: _94  and  _95
REMARK   41  A    between atoms: _94  and  _97
REMARK   42  A    between atoms: _97  and  _98
REMARK   43  A    between atoms: _101  and  _103
REMARK   44  A    between atoms: _103  and  _104
REMARK   45  A    between atoms: _103  and  _106
REMARK   46  A    between atoms: _109  and  _111
REMARK   47  A    between atoms: _111  and  _112
REMARK   48  A    between atoms: _111  and  _114
REMARK   49  A    between atoms: _114  and  _115
REMARK   50  A    between atoms: _115  and  _116
REMARK   51  A    between atoms: _116  and  _117
REMARK   52  A    between atoms: _117  and  _118
REMARK   53  A    between atoms: _122  and  _124
REMARK   54  A    between atoms: _124  and  _125
REMARK   55  A    between atoms: _124  and  _127
REMARK   56  A    between atoms: _127  and  _128
REMARK   57  A    between atoms: _128  and  _129
REMARK   58  A    between atoms: _131  and  _133
REMARK   59  A    between atoms: _133  and  _134
REMARK   60  A    between atoms: _133  and  _136
REMARK   61  A    between atoms: _136  and  _137
REMARK   62  A    between atoms: _140  and  _142
REMARK   63  A    between atoms: _142  and  _143
REMARK   64  A    between atoms: _145  and  _147
REMARK   65  A    between atoms: _147  and  _148
REMARK   66  A    between atoms: _150  and  _152
REMARK   67  A    between atoms: _152  and  _153
REMARK   68  A    between atoms: _152  and  _155
REMARK   69  A    between atoms: _155  and  _156
REMARK   70  A    between atoms: _159  and  _161
REMARK   71  A    between atoms: _161  and  _162
REMARK   72  A    between atoms: _164  and  _166
REMARK   73  A    between atoms: _166  and  _167
REMARK   74  A    between atoms: _169  and  _171
REMARK   75  A    between atoms: _171  and  _172
REMARK   76  A    between atoms: _171  and  _174
REMARK   77  A    between atoms: _174  and  _175
REMARK   78  A    between atoms: _181  and  _183
REMARK   79  A    between atoms: _183  and  _184
REMARK   80  A    between atoms: _183  and  _186
REMARK   81  A    between atoms: _186  and  _187
REMARK   82  A    between atoms: _190  and  _192
REMARK   83  A    between atoms: _192  and  _193
REMARK   84  A    between atoms: _192  and  _195
REMARK   85  A    between atoms: _198  and  _200
REMARK   86  A    between atoms: _200  and  _201
REMARK   87  A    between atoms: _200  and  _203
REMARK   88  A    between atoms: _203  and  _204
REMARK   89  A    between atoms: _207  and  _209
REMARK   90  A    between atoms: _209  and  _210
REMARK   91  A    between atoms: _209  and  _212
REMARK   92  A    between atoms: _212  and  _213
REMARK   93  A    between atoms: _217  and  _218
REMARK   94  A    between atoms: _223  and  _225
REMARK   95  A    between atoms: _225  and  _226
REMARK   96  A    between atoms: _225  and  _228
REMARK   97  A    between atoms: _231  and  _233
REMARK   98  A    between atoms: _233  and  _234
REMARK   99  A    between atoms: _233  and  _236
REMARK  100  A    between atoms: _236  and  _237
REMARK  101  A    between atoms: _242  and  _244
REMARK  102  A    between atoms: _244  and  _245
REMARK  103  A    between atoms: _244  and  _247
REMARK  104  A    between atoms: _247  and  _248
REMARK  105  A    between atoms: _251  and  _253
REMARK  106  A    between atoms: _253  and  _254
REMARK  107  A    between atoms: _253  and  _256
REMARK  108  A    between atoms: _256  and  _257
REMARK  109  A    between atoms: _260  and  _262
REMARK  110  A    between atoms: _262  and  _263
REMARK  111  A    between atoms: _265  and  _267
REMARK  112  A    between atoms: _267  and  _268
REMARK  113  A    between atoms: _267  and  _270
REMARK  114  A    between atoms: _270  and  _271
REMARK  115  A    between atoms: _271  and  _272
REMARK  116  A    between atoms: _272  and  _273
REMARK  117  A    between atoms: _282  and  _284
REMARK  118  A    between atoms: _284  and  _285
REMARK  119  A    between atoms: _284  and  _287
REMARK  120  A    between atoms: _288  and  _289
REMARK  121  A    between atoms: _289  and  _290
REMARK  122  A    between atoms: _299  and  _301
REMARK  123  A    between atoms: _301  and  _302
REMARK  124  A    between atoms: _301  and  _304
REMARK  125  A    between atoms: _304  and  _305
REMARK  126  A    between atoms: _308  and  _310
REMARK  127  A    between atoms: _310  and  _311
REMARK  128  A    between atoms: _310  and  _313
REMARK  129  A    between atoms: _313  and  _314
REMARK  130  A    between atoms: _317  and  _319
REMARK  131  A    between atoms: _319  and  _320
REMARK  132  A    between atoms: _319  and  _322
REMARK  133  A    between atoms: _322  and  _323
REMARK  134  A    between atoms: _326  and  _328
REMARK  135  A    between atoms: _328  and  _329
REMARK  136  A    between atoms: _328  and  _331
REMARK  137  A    between atoms: _331  and  _332
REMARK  138  A    between atoms: _335  and  _337
REMARK  139  A    between atoms: _337  and  _338
REMARK  140  A    between atoms: _340  and  _342
REMARK  141  A    between atoms: _342  and  _343
REMARK  142  A    between atoms: _346  and  _348
REMARK  143  A    between atoms: _348  and  _349
REMARK  144  A    between atoms: _348  and  _351
REMARK  145  A    between atoms: _351  and  _352
REMARK  146  A    between atoms: _355  and  _357
REMARK  147  A    between atoms: _357  and  _358
REMARK  148  A    between atoms: _357  and  _360
REMARK  149  A    between atoms: _360  and  _361
REMARK  150  A    between atoms: _364  and  _366
REMARK  151  A    between atoms: _366  and  _367
REMARK  152  A    between atoms: _366  and  _369
REMARK  153  A    between atoms: _369  and  _370
REMARK  154  A    between atoms: _373  and  _375
REMARK  155  A    between atoms: _375  and  _376
REMARK  156  A    between atoms: _375  and  _378
REMARK  157  A    between atoms: _381  and  _383
REMARK  158  A    between atoms: _383  and  _384
REMARK  159  A    between atoms: _383  and  _386
REMARK  160  A    between atoms: _386  and  _387
REMARK  161  A    between atoms: _390  and  _392
REMARK  162  A    between atoms: _392  and  _393
REMARK  163  A    between atoms: _392  and  _395
REMARK  164  A    between atoms: _395  and  _396
REMARK  165  A    between atoms: _396  and  _397
REMARK  166  A    between atoms: _397  and  _398
REMARK  167  A    between atoms: _398  and  _399
REMARK  168  A    between atoms: _403  and  _405
REMARK  169  A    between atoms: _405  and  _406
REMARK  170  A    between atoms: _405  and  _408
REMARK  171  A    between atoms: _408  and  _409
REMARK  172  A    between atoms: _409  and  _410
REMARK  173  A    between atoms: _412  and  _414
REMARK  174  A    between atoms: _414  and  _415
REMARK  175  A    between atoms: _414  and  _417
REMARK  176  A    between atoms: _417  and  _418
REMARK  177  A    between atoms: _421  and  _423
REMARK  178  A    between atoms: _423  and  _424
REMARK  179  A    between atoms: _426  and  _428
REMARK  180  A    between atoms: _428  and  _429
REMARK  181  A    between atoms: _431  and  _433
REMARK  182  A    between atoms: _433  and  _434
REMARK  183  A    between atoms: _433  and  _436
REMARK  184  A    between atoms: _436  and  _437
REMARK  185  A    between atoms: _440  and  _442
REMARK  186  A    between atoms: _442  and  _443
REMARK  187  A    between atoms: _445  and  _447
REMARK  188  A    between atoms: _447  and  _448
REMARK  189  A    between atoms: _450  and  _452
REMARK  190  A    between atoms: _452  and  _453
REMARK  191  A    between atoms: _452  and  _455
REMARK  192  A    between atoms: _455  and  _456
REMARK  193  A    between atoms: _462  and  _464
REMARK  194  A    between atoms: _464  and  _465
REMARK  195  A    between atoms: _464  and  _467
REMARK  196  A    between atoms: _467  and  _468
REMARK  197  A    between atoms: _471  and  _473
REMARK  198  A    between atoms: _473  and  _474
REMARK  199  A    between atoms: _473  and  _476
REMARK  200  A    between atoms: _479  and  _481
REMARK  201  A    between atoms: _481  and  _482
REMARK  202  A    between atoms: _481  and  _484
REMARK  203  A    between atoms: _484  and  _485
REMARK  204  A    between atoms: _488  and  _490
REMARK  205  A    between atoms: _490  and  _491
REMARK  206  A    between atoms: _490  and  _493
REMARK  207  A    between atoms: _493  and  _494
REMARK  208  A    between atoms: _498  and  _499
REMARK  209  A    between atoms: _504  and  _506
REMARK  210  A    between atoms: _506  and  _507
REMARK  211  A    between atoms: _506  and  _509
REMARK  212  A    between atoms: _512  and  _514
REMARK  213  A    between atoms: _514  and  _515
REMARK  214  A    between atoms: _514  and  _517
REMARK  215  A    between atoms: _517  and  _518
REMARK  216  A    between atoms: _523  and  _525
REMARK  217  A    between atoms: _525  and  _526
REMARK  218  A    between atoms: _525  and  _528
REMARK  219  A    between atoms: _528  and  _529
REMARK  220  A    between atoms: _532  and  _534
REMARK  221  A    between atoms: _534  and  _535
REMARK  222  A    between atoms: _534  and  _537
REMARK  223  A    between atoms: _537  and  _538
REMARK  224  A    between atoms: _541  and  _543
REMARK  225  A    between atoms: _543  and  _544
REMARK  226  A    between atoms: _546  and  _548
REMARK  227  A    between atoms: _548  and  _549
REMARK  228  A    between atoms: _548  and  _551
REMARK  229  A    between atoms: _551  and  _552
REMARK  230  A    between atoms: _552  and  _553
REMARK  231  A    between atoms: _553  and  _554
REMARK  232  A    between atoms: _563  and  _565
REMARK  233  A    between atoms: _565  and  _566
REMARK  234  A    between atoms: _565  and  _568
REMARK  235  A    between atoms: _568  and  _569
REMARK                            x       y       z     vdW  Elec       q    Type
REMARK                         _______ _______ _______ _____ _____    ______ ____
ROOT
ATOM      1  O   HOH     1      16.060   9.186  -3.766  0.00  0.00    +0.000 OA
ENDROOT
TORSDOF 0
REMARK  Name = ../refined-set-2016/1sdt/1sdt_pocket.pdb
REMARK  235 active torsions:
REMARK  status: ('A' for Active; 'I' for Inactive)
REMARK    1  A    between atoms: _1  and  _3
REMARK    2  A    between atoms: _3  and  _4
REMARK    3  A    between atoms: _3  and  _6
REMARK    4  A    between atoms: _6  and  _7
REMARK    5  A    between atoms: _7  and  _8
REMARK    6  A    between atoms: _8  and  _9
REMARK    7  A    between atoms: _18  and  _20
REMARK    8  A    between atoms: _20  and  _21
REMARK    9  A    between atoms: _20  and  _23
REMARK   10  A    between atoms: _23  and  _24
REMARK   11  A    between atoms: _27  and  _29
REMARK   12  A    between atoms: _29  and  _30
REMARK   13  A    between atoms: _29  and  _32
REMARK   14  A    between atoms: _32  and  _33
REMARK   15  A    between atoms: _36  and  _38
REMARK   16  A    between atoms: _38  and  _39
REMARK   17  A    between atoms: _38  and  _41
REMARK   18  A    between atoms: _41  and  _42
REMARK   19  A    between atoms: _45  and  _47
REMARK   20  A    between atoms: _47  and  _48
REMARK   21  A    between atoms: _47  and  _50
REMARK   22  A    between atoms: _50  and  _51
REMARK   23  A    between atoms: _54  and  _56
REMARK   24  A    between atoms: _56  and  _57
REMARK   25  A    between atoms: _56  and  _59
REMARK   26  A    between atoms: _59  and  _60
REMARK   27  A    between atoms: _63  and  _65
REMARK   28  A    between atoms: _65  and  _66
REMARK   29  A    between atoms: _68  and  _70
REMARK   30  A    between atoms: _70  and  _71
REMARK   31  A    between atoms: _74  and  _76
REMARK   32  A    between atoms: _76  and  _77
REMARK   33  A    between atoms: _76  and  _79
REMARK   34  A    between atoms: _79  and  _80
REMARK   35  A    between atoms: _83  and  _85
REMARK   36  A    between atoms: _85  and  _86
REMARK   37  A    between atoms: _85  and  _88
REMARK   38  A    between atoms: _88  and  _89
REMARK   39  A    between atoms: _92  and  _94
REMARK   40  A    between atoms: _94  and  _95
REMARK   41  A    between atoms: _94  and  _97
REMARK   42  A    between atoms: _97  and  _98
REMARK   43  A    between atoms: _101  and  _103
REMARK   44  A    between atoms: _103  and  _104
REMARK   45  A    between atoms: _103  and  _106
REMARK   46  A    between atoms: _109  and  _111
REMARK   47  A    between atoms: _111  and  _112
REMARK   48  A    between atoms: _111  and  _114
REMARK   49  A    between atoms: _114  and  _115
REMARK   50  A    between atoms: _115  and  _116
REMARK   51  A    between atoms: _116  and  _117
REMARK   52  A    between atoms: _117  and  _118
REMARK   53  A    between atoms: _122  and  _124
REMARK   54  A    between atoms: _124  and  _125
REMARK   55  A    between atoms: _124  and  _127
REMARK   56  A    between atoms: _127  and  _128
REMARK   57  A    between atoms: _128  and  _129
REMARK   58  A    between atoms: _131  and  _133
REMARK   59  A    between atoms: _133  and  _134
REMARK   60  A    between atoms: _133  and  _136
REMARK   61  A    between atoms: _136  and  _137
REMARK   62  A    between atoms: _140  and  _142
REMARK   63  A    between atoms: _142  and  _143
REMARK   64  A    between atoms: _145  and  _147
REMARK   65  A    between atoms: _147  and  _148
REMARK   66  A    between atoms: _150  and  _152
REMARK   67  A    between atoms: _152  and  _153
REMARK   68  A    between atoms: _152  and  _155
REMARK   69  A    between atoms: _155  and  _156
REMARK   70  A    between atoms: _159  and  _161
REMARK   71  A    between atoms: _161  and  _162
REMARK   72  A    between atoms: _164  and  _166
REMARK   73  A    between atoms: _166  and  _167
REMARK   74  A    between atoms: _169  and  _171
REMARK   75  A    between atoms: _171  and  _172
REMARK   76  A    between atoms: _171  and  _174
REMARK   77  A    between atoms: _174  and  _175
REMARK   78  A    between atoms: _181  and  _183
REMARK   79  A    between atoms: _183  and  _184
REMARK   80  A    between atoms: _183  and  _186
REMARK   81  A    between atoms: _186  and  _187
REMARK   82  A    between atoms: _190  and  _192
REMARK   83  A    between atoms: _192  and  _193
REMARK   84  A    between atoms: _192  and  _195
REMARK   85  A    between atoms: _198  and  _200
REMARK   86  A    between atoms: _200  and  _201
REMARK   87  A    between atoms: _200  and  _203
REMARK   88  A    between atoms: _203  and  _204
REMARK   89  A    between atoms: _207  and  _209
REMARK   90  A    between atoms: _209  and  _210
REMARK   91  A    between atoms: _209  and  _212
REMARK   92  A    between atoms: _212  and  _213
REMARK   93  A    between atoms: _217  and  _218
REMARK   94  A    between atoms: _223  and  _225
REMARK   95  A    between atoms: _225  and  _226
REMARK   96  A    between atoms: _225  and  _228
REMARK   97  A    between atoms: _231  and  _233
REMARK   98  A    between atoms: _233  and  _234
REMARK   99  A    between atoms: _233  and  _236
REMARK  100  A    between atoms: _236  and  _237
REMARK  101  A    between atoms: _242  and  _244
REMARK  102  A    between atoms: _244  and  _245
REMARK  103  A    between atoms: _244  and  _247
REMARK  104  A    between atoms: _247  and  _248
REMARK  105  A    between atoms: _251  and  _253
REMARK  106  A    between atoms: _253  and  _254
REMARK  107  A    between atoms: _253  and  _256
REMARK  108  A    between atoms: _256  and  _257
REMARK  109  A    between atoms: _260  and  _262
REMARK  110  A    between atoms: _262  and  _263
REMARK  111  A    between atoms: _265  and  _267
REMARK  112  A    between atoms: _267  and  _268
REMARK  113  A    between atoms: _267  and  _270
REMARK  114  A    between atoms: _270  and  _271
REMARK  115  A    between atoms: _271  and  _272
REMARK  116  A    between atoms: _272  and  _273
REMARK  117  A    between atoms: _282  and  _284
REMARK  118  A    between atoms: _284  and  _285
REMARK  119  A    between atoms: _284  and  _287
REMARK  120  A    between atoms: _288  and  _289
REMARK  121  A    between atoms: _289  and  _290
REMARK  122  A    between atoms: _299  and  _301
REMARK  123  A    between atoms: _301  and  _302
REMARK  124  A    between atoms: _301  and  _304
REMARK  125  A    between atoms: _304  and  _305
REMARK  126  A    between atoms: _308  and  _310
REMARK  127  A    between atoms: _310  and  _311
REMARK  128  A    between atoms: _310  and  _313
REMARK  129  A    between atoms: _313  and  _314
REMARK  130  A    between atoms: _317  and  _319
REMARK  131  A    between atoms: _319  and  _320
REMARK  132  A    between atoms: _319  and  _322
REMARK  133  A    between atoms: _322  and  _323
REMARK  134  A    between atoms: _326  and  _328
REMARK  135  A    between atoms: _328  and  _329
REMARK  136  A    between atoms: _328  and  _331
REMARK  137  A    between atoms: _331  and  _332
REMARK  138  A    between atoms: _335  and  _337
REMARK  139  A    between atoms: _337  and  _338
REMARK  140  A    between atoms: _340  and  _342
REMARK  141  A    between atoms: _342  and  _343
REMARK  142  A    between atoms: _346  and  _348
REMARK  143  A    between atoms: _348  and  _349
REMARK  144  A    between atoms: _348  and  _351
REMARK  145  A    between atoms: _351  and  _352
REMARK  146  A    between atoms: _355  and  _357
REMARK  147  A    between atoms: _357  and  _358
REMARK  148  A    between atoms: _357  and  _360
REMARK  149  A    between atoms: _360  and  _361
REMARK  150  A    between atoms: _364  and  _366
REMARK  151  A    between atoms: _366  and  _367
REMARK  152  A    between atoms: _366  and  _369
REMARK  153  A    between atoms: _369  and  _370
REMARK  154  A    between atoms: _373  and  _375
REMARK  155  A    between atoms: _375  and  _376
REMARK  156  A    between atoms: _375  and  _378
REMARK  157  A    between atoms: _381  and  _383
REMARK  158  A    between atoms: _383  and  _384
REMARK  159  A    between atoms: _383  and  _386
REMARK  160  A    between atoms: _386  and  _387
REMARK  161  A    between atoms: _390  and  _392
REMARK  162  A    between atoms: _392  and  _393
REMARK  163  A    between atoms: _392  and  _395
REMARK  164  A    between atoms: _395  and  _396
REMARK  165  A    between atoms: _396  and  _397
REMARK  166  A    between atoms: _397  and  _398
REMARK  167  A    between atoms: _398  and  _399
REMARK  168  A    between atoms: _403  and  _405
REMARK  169  A    between atoms: _405  and  _406
REMARK  170  A    between atoms: _405  and  _408
REMARK  171  A    between atoms: _408  and  _409
REMARK  172  A    between atoms: _409  and  _410
REMARK  173  A    between atoms: _412  and  _414
REMARK  174  A    between atoms: _414  and  _415
REMARK  175  A    between atoms: _414  and  _417
REMARK  176  A    between atoms: _417  and  _418
REMARK  177  A    between atoms: _421  and  _423
REMARK  178  A    between atoms: _423  and  _424
REMARK  179  A    between atoms: _426  and  _428
REMARK  180  A    between atoms: _428  and  _429
REMARK  181  A    between atoms: _431  and  _433
REMARK  182  A    between atoms: _433  and  _434
REMARK  183  A    between atoms: _433  and  _436
REMARK  184  A    between atoms: _436  and  _437
REMARK  185  A    between atoms: _440  and  _442
REMARK  186  A    between atoms: _442  and  _443
REMARK  187  A    between atoms: _445  and  _447
REMARK  188  A    between atoms: _447  and  _448
REMARK  189  A    between atoms: _450  and  _452
REMARK  190  A    between atoms: _452  and  _453
REMARK  191  A    between atoms: _452  and  _455
REMARK  192  A    between atoms: _455  and  _456
REMARK  193  A    between atoms: _462  and  _464
REMARK  194  A    between atoms: _464  and  _465
REMARK  195  A    between atoms: _464  and  _467
REMARK  196  A    between atoms: _467  and  _468
REMARK  197  A    between atoms: _471  and  _473
REMARK  198  A    between atoms: _473  and  _474
REMARK  199  A    between atoms: _473  and  _476
REMARK  200  A    between atoms: _479  and  _481
REMARK  201  A    between atoms: _481  and  _482
REMARK  202  A    between atoms: _481  and  _484
REMARK  203  A    between atoms: _484  and  _485
REMARK  204  A    between atoms: _488  and  _490
REMARK  205  A    between atoms: _490  and  _491
REMARK  206  A    between atoms: _490  and  _493
REMARK  207  A    between atoms: _493  and  _494
REMARK  208  A    between atoms: _498  and  _499
REMARK  209  A    between atoms: _504  and  _506
REMARK  210  A    between atoms: _506  and  _507
REMARK  211  A    between atoms: _506  and  _509
REMARK  212  A    between atoms: _512  and  _514
REMARK  213  A    between atoms: _514  and  _515
REMARK  214  A    between atoms: _514  and  _517
REMARK  215  A    between atoms: _517  and  _518
REMARK  216  A    between atoms: _523  and  _525
REMARK  217  A    between atoms: _525  and  _526
REMARK  218  A    between atoms: _525  and  _528
REMARK  219  A    between atoms: _528  and  _529
REMARK  220  A    between atoms: _532  and  _534
REMARK  221  A    between atoms: _534  and  _535
REMARK  222  A    between atoms: _534  and  _537
REMARK  223  A    between atoms: _537  and  _538
REMARK  224  A    between atoms: _541  and  _543
REMARK  225  A    between atoms: _543  and  _544
REMARK  226  A    between atoms: _546  and  _548
REMARK  227  A    between atoms: _548  and  _549
REMARK  228  A    between atoms: _548  and  _551
REMARK  229  A    between atoms: _551  and  _552
REMARK  230  A    between atoms: _552  and  _553
REMARK  231  A    between atoms: _553  and  _554
REMARK  232  A    between atoms: _563  and  _565
REMARK  233  A    between atoms: _565  and  _566
REMARK  234  A    between atoms: _565  and  _568
REMARK  235  A    between atoms: _568  and  _569
REMARK                            x       y       z     vdW  Elec       q    Type
REMARK                         _______ _______ _______ _____ _____    ______ ____
ROOT
ATOM      1  O   HOH     1      23.871   7.678   5.048  0.00  0.00    +0.000 OA
ENDROOT
TORSDOF 0
REMARK  Name = ../refined-set-2016/1sdt/1sdt_pocket.pdb
REMARK  235 active torsions:
REMARK  status: ('A' for Active; 'I' for Inactive)
REMARK    1  A    between atoms: _1  and  _3
REMARK    2  A    between atoms: _3  and  _4
REMARK    3  A    between atoms: _3  and  _6
REMARK    4  A    between atoms: _6  and  _7
REMARK    5  A    between atoms: _7  and  _8
REMARK    6  A    between atoms: _8  and  _9
REMARK    7  A    between atoms: _18  and  _20
REMARK    8  A    between atoms: _20  and  _21
REMARK    9  A    between atoms: _20  and  _23
REMARK   10  A    between atoms: _23  and  _24
REMARK   11  A    between atoms: _27  and  _29
REMARK   12  A    between atoms: _29  and  _30
REMARK   13  A    between atoms: _29  and  _32
REMARK   14  A    between atoms: _32  and  _33
REMARK   15  A    between atoms: _36  and  _38
REMARK   16  A    between atoms: _38  and  _39
REMARK   17  A    between atoms: _38  and  _41
REMARK   18  A    between atoms: _41  and  _42
REMARK   19  A    between atoms: _45  and  _47
REMARK   20  A    between atoms: _47  and  _48
REMARK   21  A    between atoms: _47  and  _50
REMARK   22  A    between atoms: _50  and  _51
REMARK   23  A    between atoms: _54  and  _56
REMARK   24  A    between atoms: _56  and  _57
REMARK   25  A    between atoms: _56  and  _59
REMARK   26  A    between atoms: _59  and  _60
REMARK   27  A    between atoms: _63  and  _65
REMARK   28  A    between atoms: _65  and  _66
REMARK   29  A    between atoms: _68  and  _70
REMARK   30  A    between atoms: _70  and  _71
REMARK   31  A    between atoms: _74  and  _76
REMARK   32  A    between atoms: _76  and  _77
REMARK   33  A    between atoms: _76  and  _79
REMARK   34  A    between atoms: _79  and  _80
REMARK   35  A    between atoms: _83  and  _85
REMARK   36  A    between atoms: _85  and  _86
REMARK   37  A    between atoms: _85  and  _88
REMARK   38  A    between atoms: _88  and  _89
REMARK   39  A    between atoms: _92  and  _94
REMARK   40  A    between atoms: _94  and  _95
REMARK   41  A    between atoms: _94  and  _97
REMARK   42  A    between atoms: _97  and  _98
REMARK   43  A    between atoms: _101  and  _103
REMARK   44  A    between atoms: _103  and  _104
REMARK   45  A    between atoms: _103  and  _106
REMARK   46  A    between atoms: _109  and  _111
REMARK   47  A    between atoms: _111  and  _112
REMARK   48  A    between atoms: _111  and  _114
REMARK   49  A    between atoms: _114  and  _115
REMARK   50  A    between atoms: _115  and  _116
REMARK   51  A    between atoms: _116  and  _117
REMARK   52  A    between atoms: _117  and  _118
REMARK   53  A    between atoms: _122  and  _124
REMARK   54  A    between atoms: _124  and  _125
REMARK   55  A    between atoms: _124  and  _127
REMARK   56  A    between atoms: _127  and  _128
REMARK   57  A    between atoms: _128  and  _129
REMARK   58  A    between atoms: _131  and  _133
REMARK   59  A    between atoms: _133  and  _134
REMARK   60  A    between atoms: _133  and  _136
REMARK   61  A    between atoms: _136  and  _137
REMARK   62  A    between atoms: _140  and  _142
REMARK   63  A    between atoms: _142  and  _143
REMARK   64  A    between atoms: _145  and  _147
REMARK   65  A    between atoms: _147  and  _148
REMARK   66  A    between atoms: _150  and  _152
REMARK   67  A    between atoms: _152  and  _153
REMARK   68  A    between atoms: _152  and  _155
REMARK   69  A    between atoms: _155  and  _156
REMARK   70  A    between atoms: _159  and  _161
REMARK   71  A    between atoms: _161  and  _162
REMARK   72  A    between atoms: _164  and  _166
REMARK   73  A    between atoms: _166  and  _167
REMARK   74  A    between atoms: _169  and  _171
REMARK   75  A    between atoms: _171  and  _172
REMARK   76  A    between atoms: _171  and  _174
REMARK   77  A    between atoms: _174  and  _175
REMARK   78  A    between atoms: _181  and  _183
REMARK   79  A    between atoms: _183  and  _184
REMARK   80  A    between atoms: _183  and  _186
REMARK   81  A    between atoms: _186  and  _187
REMARK   82  A    between atoms: _190  and  _192
REMARK   83  A    between atoms: _192  and  _193
REMARK   84  A    between atoms: _192  and  _195
REMARK   85  A    between atoms: _198  and  _200
REMARK   86  A    between atoms: _200  and  _201
REMARK   87  A    between atoms: _200  and  _203
REMARK   88  A    between atoms: _203  and  _204
REMARK   89  A    between atoms: _207  and  _209
REMARK   90  A    between atoms: _209  and  _210
REMARK   91  A    between atoms: _209  and  _212
REMARK   92  A    between atoms: _212  and  _213
REMARK   93  A    between atoms: _217  and  _218
REMARK   94  A    between atoms: _223  and  _225
REMARK   95  A    between atoms: _225  and  _226
REMARK   96  A    between atoms: _225  and  _228
REMARK   97  A    between atoms: _231  and  _233
REMARK   98  A    between atoms: _233  and  _234
REMARK   99  A    between atoms: _233  and  _236
REMARK  100  A    between atoms: _236  and  _237
REMARK  101  A    between atoms: _242  and  _244
REMARK  102  A    between atoms: _244  and  _245
REMARK  103  A    between atoms: _244  and  _247
REMARK  104  A    between atoms: _247  and  _248
REMARK  105  A    between atoms: _251  and  _253
REMARK  106  A    between atoms: _253  and  _254
REMARK  107  A    between atoms: _253  and  _256
REMARK  108  A    between atoms: _256  and  _257
REMARK  109  A    between atoms: _260  and  _262
REMARK  110  A    between atoms: _262  and  _263
REMARK  111  A    between atoms: _265  and  _267
REMARK  112  A    between atoms: _267  and  _268
REMARK  113  A    between atoms: _267  and  _270
REMARK  114  A    between atoms: _270  and  _271
REMARK  115  A    between atoms: _271  and  _272
REMARK  116  A    between atoms: _272  and  _273
REMARK  117  A    between atoms: _282  and  _284
REMARK  118  A    between atoms: _284  and  _285
REMARK  119  A    between atoms: _284  and  _287
REMARK  120  A    between atoms: _288  and  _289
REMARK  121  A    between atoms: _289  and  _290
REMARK  122  A    between atoms: _299  and  _301
REMARK  123  A    between atoms: _301  and  _302
REMARK  124  A    between atoms: _301  and  _304
REMARK  125  A    between atoms: _304  and  _305
REMARK  126  A    between atoms: _308  and  _310
REMARK  127  A    between atoms: _310  and  _311
REMARK  128  A    between atoms: _310  and  _313
REMARK  129  A    between atoms: _313  and  _314
REMARK  130  A    between atoms: _317  and  _319
REMARK  131  A    between atoms: _319  and  _320
REMARK  132  A    between atoms: _319  and  _322
REMARK  133  A    between atoms: _322  and  _323
REMARK  134  A    between atoms: _326  and  _328
REMARK  135  A    between atoms: _328  and  _329
REMARK  136  A    between atoms: _328  and  _331
REMARK  137  A    between atoms: _331  and  _332
REMARK  138  A    between atoms: _335  and  _337
REMARK  139  A    between atoms: _337  and  _338
REMARK  140  A    between atoms: _340  and  _342
REMARK  141  A    between atoms: _342  and  _343
REMARK  142  A    between atoms: _346  and  _348
REMARK  143  A    between atoms: _348  and  _349
REMARK  144  A    between atoms: _348  and  _351
REMARK  145  A    between atoms: _351  and  _352
REMARK  146  A    between atoms: _355  and  _357
REMARK  147  A    between atoms: _357  and  _358
REMARK  148  A    between atoms: _357  and  _360
REMARK  149  A    between atoms: _360  and  _361
REMARK  150  A    between atoms: _364  and  _366
REMARK  151  A    between atoms: _366  and  _367
REMARK  152  A    between atoms: _366  and  _369
REMARK  153  A    between atoms: _369  and  _370
REMARK  154  A    between atoms: _373  and  _375
REMARK  155  A    between atoms: _375  and  _376
REMARK  156  A    between atoms: _375  and  _378
REMARK  157  A    between atoms: _381  and  _383
REMARK  158  A    between atoms: _383  and  _384
REMARK  159  A    between atoms: _383  and  _386
REMARK  160  A    between atoms: _386  and  _387
REMARK  161  A    between atoms: _390  and  _392
REMARK  162  A    between atoms: _392  and  _393
REMARK  163  A    between atoms: _392  and  _395
REMARK  164  A    between atoms: _395  and  _396
REMARK  165  A    between atoms: _396  and  _397
REMARK  166  A    between atoms: _397  and  _398
REMARK  167  A    between atoms: _398  and  _399
REMARK  168  A    between atoms: _403  and  _405
REMARK  169  A    between atoms: _405  and  _406
REMARK  170  A    between atoms: _405  and  _408
REMARK  171  A    between atoms: _408  and  _409
REMARK  172  A    between atoms: _409  and  _410
REMARK  173  A    between atoms: _412  and  _414
REMARK  174  A    between atoms: _414  and  _415
REMARK  175  A    between atoms: _414  and  _417
REMARK  176  A    between atoms: _417  and  _418
REMARK  177  A    between atoms: _421  and  _423
REMARK  178  A    between atoms: _423  and  _424
REMARK  179  A    between atoms: _426  and  _428
REMARK  180  A    between atoms: _428  and  _429
REMARK  181  A    between atoms: _431  and  _433
REMARK  182  A    between atoms: _433  and  _434
REMARK  183  A    between atoms: _433  and  _436
REMARK  184  A    between atoms: _436  and  _437
REMARK  185  A    between atoms: _440  and  _442
REMARK  186  A    between atoms: _442  and  _443
REMARK  187  A    between atoms: _445  and  _447
REMARK  188  A    between atoms: _447  and  _448
REMARK  189  A    between atoms: _450  and  _452
REMARK  190  A    between atoms: _452  and  _453
REMARK  191  A    between atoms: _452  and  _455
REMARK  192  A    between atoms: _455  and  _456
REMARK  193  A    between atoms: _462  and  _464
REMARK  194  A    between atoms: _464  and  _465
REMARK  195  A    between atoms: _464  and  _467
REMARK  196  A    between atoms: _467  and  _468
REMARK  197  A    between atoms: _471  and  _473
REMARK  198  A    between atoms: _473  and  _474
REMARK  199  A    between atoms: _473  and  _476
REMARK  200  A    between atoms: _479  and  _481
REMARK  201  A    between atoms: _481  and  _482
REMARK  202  A    between atoms: _481  and  _484
REMARK  203  A    between atoms: _484  and  _485
REMARK  204  A    between atoms: _488  and  _490
REMARK  205  A    between atoms: _490  and  _491
REMARK  206  A    between atoms: _490  and  _493
REMARK  207  A    between atoms: _493  and  _494
REMARK  208  A    between atoms: _498  and  _499
REMARK  209  A    between atoms: _504  and  _506
REMARK  210  A    between atoms: _506  and  _507
REMARK  211  A    between atoms: _506  and  _509
REMARK  212  A    between atoms: _512  and  _514
REMARK  213  A    between atoms: _514  and  _515
REMARK  214  A    between atoms: _514  and  _517
REMARK  215  A    between atoms: _517  and  _518
REMARK  216  A    between atoms: _523  and  _525
REMARK  217  A    between atoms: _525  and  _526
REMARK  218  A    between atoms: _525  and  _528
REMARK  219  A    between atoms: _528  and  _529
REMARK  220  A    between atoms: _532  and  _534
REMARK  221  A    between atoms: _534  and  _535
REMARK  222  A    between atoms: _534  and  _537
REMARK  223  A    between atoms: _537  and  _538
REMARK  224  A    between atoms: _541  and  _543
REMARK  225  A    between atoms: _543  and  _544
REMARK  226  A    between atoms: _546  and  _548
REMARK  227  A    between atoms: _548  and  _549
REMARK  228  A    between atoms: _548  and  _551
REMARK  229  A    between atoms: _551  and  _552
REMARK  230  A    between atoms: _552  and  _553
REMARK  231  A    between atoms: _553  and  _554
REMARK  232  A    between atoms: _563  and  _565
REMARK  233  A    between atoms: _565  and  _566
REMARK  234  A    between atoms: _565  and  _568
REMARK  235  A    between atoms: _568  and  _569
REMARK                            x       y       z     vdW  Elec       q    Type
REMARK                         _______ _______ _______ _____ _____    ______ ____
ROOT
ATOM      1  O   HOH     1      20.770  18.025   6.934  0.00  0.00    +0.000 OA
ENDROOT
TORSDOF 0
REMARK  Name = ../refined-set-2016/1sdt/1sdt_pocket.pdb
REMARK  235 active torsions:
REMARK  status: ('A' for Active; 'I' for Inactive)
REMARK    1  A    between atoms: _1  and  _3
REMARK    2  A    between atoms: _3  and  _4
REMARK    3  A    between atoms: _3  and  _6
REMARK    4  A    between atoms: _6  and  _7
REMARK    5  A    between atoms: _7  and  _8
REMARK    6  A    between atoms: _8  and  _9
REMARK    7  A    between atoms: _18  and  _20
REMARK    8  A    between atoms: _20  and  _21
REMARK    9  A    between atoms: _20  and  _23
REMARK   10  A    between atoms: _23  and  _24
REMARK   11  A    between atoms: _27  and  _29
REMARK   12  A    between atoms: _29  and  _30
REMARK   13  A    between atoms: _29  and  _32
REMARK   14  A    between atoms: _32  and  _33
REMARK   15  A    between atoms: _36  and  _38
REMARK   16  A    between atoms: _38  and  _39
REMARK   17  A    between atoms: _38  and  _41
REMARK   18  A    between atoms: _41  and  _42
REMARK   19  A    between atoms: _45  and  _47
REMARK   20  A    between atoms: _47  and  _48
REMARK   21  A    between atoms: _47  and  _50
REMARK   22  A    between atoms: _50  and  _51
REMARK   23  A    between atoms: _54  and  _56
REMARK   24  A    between atoms: _56  and  _57
REMARK   25  A    between atoms: _56  and  _59
REMARK   26  A    between atoms: _59  and  _60
REMARK   27  A    between atoms: _63  and  _65
REMARK   28  A    between atoms: _65  and  _66
REMARK   29  A    between atoms: _68  and  _70
REMARK   30  A    between atoms: _70  and  _71
REMARK   31  A    between atoms: _74  and  _76
REMARK   32  A    between atoms: _76  and  _77
REMARK   33  A    between atoms: _76  and  _79
REMARK   34  A    between atoms: _79  and  _80
REMARK   35  A    between atoms: _83  and  _85
REMARK   36  A    between atoms: _85  and  _86
REMARK   37  A    between atoms: _85  and  _88
REMARK   38  A    between atoms: _88  and  _89
REMARK   39  A    between atoms: _92  and  _94
REMARK   40  A    between atoms: _94  and  _95
REMARK   41  A    between atoms: _94  and  _97
REMARK   42  A    between atoms: _97  and  _98
REMARK   43  A    between atoms: _101  and  _103
REMARK   44  A    between atoms: _103  and  _104
REMARK   45  A    between atoms: _103  and  _106
REMARK   46  A    between atoms: _109  and  _111
REMARK   47  A    between atoms: _111  and  _112
REMARK   48  A    between atoms: _111  and  _114
REMARK   49  A    between atoms: _114  and  _115
REMARK   50  A    between atoms: _115  and  _116
REMARK   51  A    between atoms: _116  and  _117
REMARK   52  A    between atoms: _117  and  _118
REMARK   53  A    between atoms: _122  and  _124
REMARK   54  A    between atoms: _124  and  _125
REMARK   55  A    between atoms: _124  and  _127
REMARK   56  A    between atoms: _127  and  _128
REMARK   57  A    between atoms: _128  and  _129
REMARK   58  A    between atoms: _131  and  _133
REMARK   59  A    between atoms: _133  and  _134
REMARK   60  A    between atoms: _133  and  _136
REMARK   61  A    between atoms: _136  and  _137
REMARK   62  A    between atoms: _140  and  _142
REMARK   63  A    between atoms: _142  and  _143
REMARK   64  A    between atoms: _145  and  _147
REMARK   65  A    between atoms: _147  and  _148
REMARK   66  A    between atoms: _150  and  _152
REMARK   67  A    between atoms: _152  and  _153
REMARK   68  A    between atoms: _152  and  _155
REMARK   69  A    between atoms: _155  and  _156
REMARK   70  A    between atoms: _159  and  _161
REMARK   71  A    between atoms: _161  and  _162
REMARK   72  A    between atoms: _164  and  _166
REMARK   73  A    between atoms: _166  and  _167
REMARK   74  A    between atoms: _169  and  _171
REMARK   75  A    between atoms: _171  and  _172
REMARK   76  A    between atoms: _171  and  _174
REMARK   77  A    between atoms: _174  and  _175
REMARK   78  A    between atoms: _181  and  _183
REMARK   79  A    between atoms: _183  and  _184
REMARK   80  A    between atoms: _183  and  _186
REMARK   81  A    between atoms: _186  and  _187
REMARK   82  A    between atoms: _190  and  _192
REMARK   83  A    between atoms: _192  and  _193
REMARK   84  A    between atoms: _192  and  _195
REMARK   85  A    between atoms: _198  and  _200
REMARK   86  A    between atoms: _200  and  _201
REMARK   87  A    between atoms: _200  and  _203
REMARK   88  A    between atoms: _203  and  _204
REMARK   89  A    between atoms: _207  and  _209
REMARK   90  A    between atoms: _209  and  _210
REMARK   91  A    between atoms: _209  and  _212
REMARK   92  A    between atoms: _212  and  _213
REMARK   93  A    between atoms: _217  and  _218
REMARK   94  A    between atoms: _223  and  _225
REMARK   95  A    between atoms: _225  and  _226
REMARK   96  A    between atoms: _225  and  _228
REMARK   97  A    between atoms: _231  and  _233
REMARK   98  A    between atoms: _233  and  _234
REMARK   99  A    between atoms: _233  and  _236
REMARK  100  A    between atoms: _236  and  _237
REMARK  101  A    between atoms: _242  and  _244
REMARK  102  A    between atoms: _244  and  _245
REMARK  103  A    between atoms: _244  and  _247
REMARK  104  A    between atoms: _247  and  _248
REMARK  105  A    between atoms: _251  and  _253
REMARK  106  A    between atoms: _253  and  _254
REMARK  107  A    between atoms: _253  and  _256
REMARK  108  A    between atoms: _256  and  _257
REMARK  109  A    between atoms: _260  and  _262
REMARK  110  A    between atoms: _262  and  _263
REMARK  111  A    between atoms: _265  and  _267
REMARK  112  A    between atoms: _267  and  _268
REMARK  113  A    between atoms: _267  and  _270
REMARK  114  A    between atoms: _270  and  _271
REMARK  115  A    between atoms: _271  and  _272
REMARK  116  A    between atoms: _272  and  _273
REMARK  117  A    between atoms: _282  and  _284
REMARK  118  A    between atoms: _284  and  _285
REMARK  119  A    between atoms: _284  and  _287
REMARK  120  A    between atoms: _288  and  _289
REMARK  121  A    between atoms: _289  and  _290
REMARK  122  A    between atoms: _299  and  _301
REMARK  123  A    between atoms: _301  and  _302
REMARK  124  A    between atoms: _301  and  _304
REMARK  125  A    between atoms: _304  and  _305
REMARK  126  A    between atoms: _308  and  _310
REMARK  127  A    between atoms: _310  and  _311
REMARK  128  A    between atoms: _310  and  _313
REMARK  129  A    between atoms: _313  and  _314
REMARK  130  A    between atoms: _317  and  _319
REMARK  131  A    between atoms: _319  and  _320
REMARK  132  A    between atoms: _319  and  _322
REMARK  133  A    between atoms: _322  and  _323
REMARK  134  A    between atoms: _326  and  _328
REMARK  135  A    between atoms: _328  and  _329
REMARK  136  A    between atoms: _328  and  _331
REMARK  137  A    between atoms: _331  and  _332
REMARK  138  A    between atoms: _335  and  _337
REMARK  139  A    between atoms: _337  and  _338
REMARK  140  A    between atoms: _340  and  _342
REMARK  141  A    between atoms: _342  and  _343
REMARK  142  A    between atoms: _346  and  _348
REMARK  143  A    between atoms: _348  and  _349
REMARK  144  A    between atoms: _348  and  _351
REMARK  145  A    between atoms: _351  and  _352
REMARK  146  A    between atoms: _355  and  _357
REMARK  147  A    between atoms: _357  and  _358
REMARK  148  A    between atoms: _357  and  _360
REMARK  149  A    between atoms: _360  and  _361
REMARK  150  A    between atoms: _364  and  _366
REMARK  151  A    between atoms: _366  and  _367
REMARK  152  A    between atoms: _366  and  _369
REMARK  153  A    between atoms: _369  and  _370
REMARK  154  A    between atoms: _373  and  _375
REMARK  155  A    between atoms: _375  and  _376
REMARK  156  A    between atoms: _375  and  _378
REMARK  157  A    between atoms: _381  and  _383
REMARK  158  A    between atoms: _383  and  _384
REMARK  159  A    between atoms: _383  and  _386
REMARK  160  A    between atoms: _386  and  _387
REMARK  161  A    between atoms: _390  and  _392
REMARK  162  A    between atoms: _392  and  _393
REMARK  163  A    between atoms: _392  and  _395
REMARK  164  A    between atoms: _395  and  _396
REMARK  165  A    between atoms: _396  and  _397
REMARK  166  A    between atoms: _397  and  _398
REMARK  167  A    between atoms: _398  and  _399
REMARK  168  A    between atoms: _403  and  _405
REMARK  169  A    between atoms: _405  and  _406
REMARK  170  A    between atoms: _405  and  _408
REMARK  171  A    between atoms: _408  and  _409
REMARK  172  A    between atoms: _409  and  _410
REMARK  173  A    between atoms: _412  and  _414
REMARK  174  A    between atoms: _414  and  _415
REMARK  175  A    between atoms: _414  and  _417
REMARK  176  A    between atoms: _417  and  _418
REMARK  177  A    between atoms: _421  and  _423
REMARK  178  A    between atoms: _423  and  _424
REMARK  179  A    between atoms: _426  and  _428
REMARK  180  A    between atoms: _428  and  _429
REMARK  181  A    between atoms: _431  and  _433
REMARK  182  A    between atoms: _433  and  _434
REMARK  183  A    between atoms: _433  and  _436
REMARK  184  A    between atoms: _436  and  _437
REMARK  185  A    between atoms: _440  and  _442
REMARK  186  A    between atoms: _442  and  _443
REMARK  187  A    between atoms: _445  and  _447
REMARK  188  A    between atoms: _447  and  _448
REMARK  189  A    between atoms: _450  and  _452
REMARK  190  A    between atoms: _452  and  _453
REMARK  191  A    between atoms: _452  and  _455
REMARK  192  A    between atoms: _455  and  _456
REMARK  193  A    between atoms: _462  and  _464
REMARK  194  A    between atoms: _464  and  _465
REMARK  195  A    between atoms: _464  and  _467
REMARK  196  A    between atoms: _467  and  _468
REMARK  197  A    between atoms: _471  and  _473
REMARK  198  A    between atoms: _473  and  _474
REMARK  199  A    between atoms: _473  and  _476
REMARK  200  A    between atoms: _479  and  _481
REMARK  201  A    between atoms: _481  and  _482
REMARK  202  A    between atoms: _481  and  _484
REMARK  203  A    between atoms: _484  and  _485
REMARK  204  A    between atoms: _488  and  _490
REMARK  205  A    between atoms: _490  and  _491
REMARK  206  A    between atoms: _490  and  _493
REMARK  207  A    between atoms: _493  and  _494
REMARK  208  A    between atoms: _498  and  _499
REMARK  209  A    between atoms: _504  and  _506
REMARK  210  A    between atoms: _506  and  _507
REMARK  211  A    between atoms: _506  and  _509
REMARK  212  A    between atoms: _512  and  _514
REMARK  213  A    between atoms: _514  and  _515
REMARK  214  A    between atoms: _514  and  _517
REMARK  215  A    between atoms: _517  and  _518
REMARK  216  A    between atoms: _523  and  _525
REMARK  217  A    between atoms: _525  and  _526
REMARK  218  A    between atoms: _525  and  _528
REMARK  219  A    between atoms: _528  and  _529
REMARK  220  A    between atoms: _532  and  _534
REMARK  221  A    between atoms: _534  and  _535
REMARK  222  A    between atoms: _534  and  _537
REMARK  223  A    between atoms: _537  and  _538
REMARK  224  A    between atoms: _541  and  _543
REMARK  225  A    between atoms: _543  and  _544
REMARK  226  A    between atoms: _546  and  _548
REMARK  227  A    between atoms: _548  and  _549
REMARK  228  A    between atoms: _548  and  _551
REMARK  229  A    between atoms: _551  and  _552
REMARK  230  A    between atoms: _552  and  _553
REMARK  231  A    between atoms: _553  and  _554
REMARK  232  A    between atoms: _563  and  _565
REMARK  233  A    between atoms: _565  and  _566
REMARK  234  A    between atoms: _565  and  _568
REMARK  235  A    between atoms: _568  and  _569
REMARK                            x       y       z     vdW  Elec       q    Type
REMARK                         _______ _______ _______ _____ _____    ______ ____
ROOT
ATOM      1  O   HOH     1      16.093  11.442   8.651  0.00  0.00    +0.000 OA
ENDROOT
TORSDOF 0
REMARK  Name = ../refined-set-2016/1sdt/1sdt_pocket.pdb
REMARK  235 active torsions:
REMARK  status: ('A' for Active; 'I' for Inactive)
REMARK    1  A    between atoms: _1  and  _3
REMARK    2  A    between atoms: _3  and  _4
REMARK    3  A    between atoms: _3  and  _6
REMARK    4  A    between atoms: _6  and  _7
REMARK    5  A    between atoms: _7  and  _8
REMARK    6  A    between atoms: _8  and  _9
REMARK    7  A    between atoms: _18  and  _20
REMARK    8  A    between atoms: _20  and  _21
REMARK    9  A    between atoms: _20  and  _23
REMARK   10  A    between atoms: _23  and  _24
REMARK   11  A    between atoms: _27  and  _29
REMARK   12  A    between atoms: _29  and  _30
REMARK   13  A    between atoms: _29  and  _32
REMARK   14  A    between atoms: _32  and  _33
REMARK   15  A    between atoms: _36  and  _38
REMARK   16  A    between atoms: _38  and  _39
REMARK   17  A    between atoms: _38  and  _41
REMARK   18  A    between atoms: _41  and  _42
REMARK   19  A    between atoms: _45  and  _47
REMARK   20  A    between atoms: _47  and  _48
REMARK   21  A    between atoms: _47  and  _50
REMARK   22  A    between atoms: _50  and  _51
REMARK   23  A    between atoms: _54  and  _56
REMARK   24  A    between atoms: _56  and  _57
REMARK   25  A    between atoms: _56  and  _59
REMARK   26  A    between atoms: _59  and  _60
REMARK   27  A    between atoms: _63  and  _65
REMARK   28  A    between atoms: _65  and  _66
REMARK   29  A    between atoms: _68  and  _70
REMARK   30  A    between atoms: _70  and  _71
REMARK   31  A    between atoms: _74  and  _76
REMARK   32  A    between atoms: _76  and  _77
REMARK   33  A    between atoms: _76  and  _79
REMARK   34  A    between atoms: _79  and  _80
REMARK   35  A    between atoms: _83  and  _85
REMARK   36  A    between atoms: _85  and  _86
REMARK   37  A    between atoms: _85  and  _88
REMARK   38  A    between atoms: _88  and  _89
REMARK   39  A    between atoms: _92  and  _94
REMARK   40  A    between atoms: _94  and  _95
REMARK   41  A    between atoms: _94  and  _97
REMARK   42  A    between atoms: _97  and  _98
REMARK   43  A    between atoms: _101  and  _103
REMARK   44  A    between atoms: _103  and  _104
REMARK   45  A    between atoms: _103  and  _106
REMARK   46  A    between atoms: _109  and  _111
REMARK   47  A    between atoms: _111  and  _112
REMARK   48  A    between atoms: _111  and  _114
REMARK   49  A    between atoms: _114  and  _115
REMARK   50  A    between atoms: _115  and  _116
REMARK   51  A    between atoms: _116  and  _117
REMARK   52  A    between atoms: _117  and  _118
REMARK   53  A    between atoms: _122  and  _124
REMARK   54  A    between atoms: _124  and  _125
REMARK   55  A    between atoms: _124  and  _127
REMARK   56  A    between atoms: _127  and  _128
REMARK   57  A    between atoms: _128  and  _129
REMARK   58  A    between atoms: _131  and  _133
REMARK   59  A    between atoms: _133  and  _134
REMARK   60  A    between atoms: _133  and  _136
REMARK   61  A    between atoms: _136  and  _137
REMARK   62  A    between atoms: _140  and  _142
REMARK   63  A    between atoms: _142  and  _143
REMARK   64  A    between atoms: _145  and  _147
REMARK   65  A    between atoms: _147  and  _148
REMARK   66  A    between atoms: _150  and  _152
REMARK   67  A    between atoms: _152  and  _153
REMARK   68  A    between atoms: _152  and  _155
REMARK   69  A    between atoms: _155  and  _156
REMARK   70  A    between atoms: _159  and  _161
REMARK   71  A    between atoms: _161  and  _162
REMARK   72  A    between atoms: _164  and  _166
REMARK   73  A    between atoms: _166  and  _167
REMARK   74  A    between atoms: _169  and  _171
REMARK   75  A    between atoms: _171  and  _172
REMARK   76  A    between atoms: _171  and  _174
REMARK   77  A    between atoms: _174  and  _175
REMARK   78  A    between atoms: _181  and  _183
REMARK   79  A    between atoms: _183  and  _184
REMARK   80  A    between atoms: _183  and  _186
REMARK   81  A    between atoms: _186  and  _187
REMARK   82  A    between atoms: _190  and  _192
REMARK   83  A    between atoms: _192  and  _193
REMARK   84  A    between atoms: _192  and  _195
REMARK   85  A    between atoms: _198  and  _200
REMARK   86  A    between atoms: _200  and  _201
REMARK   87  A    between atoms: _200  and  _203
REMARK   88  A    between atoms: _203  and  _204
REMARK   89  A    between atoms: _207  and  _209
REMARK   90  A    between atoms: _209  and  _210
REMARK   91  A    between atoms: _209  and  _212
REMARK   92  A    between atoms: _212  and  _213
REMARK   93  A    between atoms: _217  and  _218
REMARK   94  A    between atoms: _223  and  _225
REMARK   95  A    between atoms: _225  and  _226
REMARK   96  A    between atoms: _225  and  _228
REMARK   97  A    between atoms: _231  and  _233
REMARK   98  A    between atoms: _233  and  _234
REMARK   99  A    between atoms: _233  and  _236
REMARK  100  A    between atoms: _236  and  _237
REMARK  101  A    between atoms: _242  and  _244
REMARK  102  A    between atoms: _244  and  _245
REMARK  103  A    between atoms: _244  and  _247
REMARK  104  A    between atoms: _247  and  _248
REMARK  105  A    between atoms: _251  and  _253
REMARK  106  A    between atoms: _253  and  _254
REMARK  107  A    between atoms: _253  and  _256
REMARK  108  A    between atoms: _256  and  _257
REMARK  109  A    between atoms: _260  and  _262
REMARK  110  A    between atoms: _262  and  _263
REMARK  111  A    between atoms: _265  and  _267
REMARK  112  A    between atoms: _267  and  _268
REMARK  113  A    between atoms: _267  and  _270
REMARK  114  A    between atoms: _270  and  _271
REMARK  115  A    between atoms: _271  and  _272
REMARK  116  A    between atoms: _272  and  _273
REMARK  117  A    between atoms: _282  and  _284
REMARK  118  A    between atoms: _284  and  _285
REMARK  119  A    between atoms: _284  and  _287
REMARK  120  A    between atoms: _288  and  _289
REMARK  121  A    between atoms: _289  and  _290
REMARK  122  A    between atoms: _299  and  _301
REMARK  123  A    between atoms: _301  and  _302
REMARK  124  A    between atoms: _301  and  _304
REMARK  125  A    between atoms: _304  and  _305
REMARK  126  A    between atoms: _308  and  _310
REMARK  127  A    between atoms: _310  and  _311
REMARK  128  A    between atoms: _310  and  _313
REMARK  129  A    between atoms: _313  and  _314
REMARK  130  A    between atoms: _317  and  _319
REMARK  131  A    between atoms: _319  and  _320
REMARK  132  A    between atoms: _319  and  _322
REMARK  133  A    between atoms: _322  and  _323
REMARK  134  A    between atoms: _326  and  _328
REMARK  135  A    between atoms: _328  and  _329
REMARK  136  A    between atoms: _328  and  _331
REMARK  137  A    between atoms: _331  and  _332
REMARK  138  A    between atoms: _335  and  _337
REMARK  139  A    between atoms: _337  and  _338
REMARK  140  A    between atoms: _340  and  _342
REMARK  141  A    between atoms: _342  and  _343
REMARK  142  A    between atoms: _346  and  _348
REMARK  143  A    between atoms: _348  and  _349
REMARK  144  A    between atoms: _348  and  _351
REMARK  145  A    between atoms: _351  and  _352
REMARK  146  A    between atoms: _355  and  _357
REMARK  147  A    between atoms: _357  and  _358
REMARK  148  A    between atoms: _357  and  _360
REMARK  149  A    between atoms: _360  and  _361
REMARK  150  A    between atoms: _364  and  _366
REMARK  151  A    between atoms: _366  and  _367
REMARK  152  A    between atoms: _366  and  _369
REMARK  153  A    between atoms: _369  and  _370
REMARK  154  A    between atoms: _373  and  _375
REMARK  155  A    between atoms: _375  and  _376
REMARK  156  A    between atoms: _375  and  _378
REMARK  157  A    between atoms: _381  and  _383
REMARK  158  A    between atoms: _383  and  _384
REMARK  159  A    between atoms: _383  and  _386
REMARK  160  A    between atoms: _386  and  _387
REMARK  161  A    between atoms: _390  and  _392
REMARK  162  A    between atoms: _392  and  _393
REMARK  163  A    between atoms: _392  and  _395
REMARK  164  A    between atoms: _395  and  _396
REMARK  165  A    between atoms: _396  and  _397
REMARK  166  A    between atoms: _397  and  _398
REMARK  167  A    between atoms: _398  and  _399
REMARK  168  A    between atoms: _403  and  _405
REMARK  169  A    between atoms: _405  and  _406
REMARK  170  A    between atoms: _405  and  _408
REMARK  171  A    between atoms: _408  and  _409
REMARK  172  A    between atoms: _409  and  _410
REMARK  173  A    between atoms: _412  and  _414
REMARK  174  A    between atoms: _414  and  _415
REMARK  175  A    between atoms: _414  and  _417
REMARK  176  A    between atoms: _417  and  _418
REMARK  177  A    between atoms: _421  and  _423
REMARK  178  A    between atoms: _423  and  _424
REMARK  179  A    between atoms: _426  and  _428
REMARK  180  A    between atoms: _428  and  _429
REMARK  181  A    between atoms: _431  and  _433
REMARK  182  A    between atoms: _433  and  _434
REMARK  183  A    between atoms: _433  and  _436
REMARK  184  A    between atoms: _436  and  _437
REMARK  185  A    between atoms: _440  and  _442
REMARK  186  A    between atoms: _442  and  _443
REMARK  187  A    between atoms: _445  and  _447
REMARK  188  A    between atoms: _447  and  _448
REMARK  189  A    between atoms: _450  and  _452
REMARK  190  A    between atoms: _452  and  _453
REMARK  191  A    between atoms: _452  and  _455
REMARK  192  A    between atoms: _455  and  _456
REMARK  193  A    between atoms: _462  and  _464
REMARK  194  A    between atoms: _464  and  _465
REMARK  195  A    between atoms: _464  and  _467
REMARK  196  A    between atoms: _467  and  _468
REMARK  197  A    between atoms: _471  and  _473
REMARK  198  A    between atoms: _473  and  _474
REMARK  199  A    between atoms: _473  and  _476
REMARK  200  A    between atoms: _479  and  _481
REMARK  201  A    between atoms: _481  and  _482
REMARK  202  A    between atoms: _481  and  _484
REMARK  203  A    between atoms: _484  and  _485
REMARK  204  A    between atoms: _488  and  _490
REMARK  205  A    between atoms: _490  and  _491
REMARK  206  A    between atoms: _490  and  _493
REMARK  207  A    between atoms: _493  and  _494
REMARK  208  A    between atoms: _498  and  _499
REMARK  209  A    between atoms: _504  and  _506
REMARK  210  A    between atoms: _506  and  _507
REMARK  211  A    between atoms: _506  and  _509
REMARK  212  A    between atoms: _512  and  _514
REMARK  213  A    between atoms: _514  and  _515
REMARK  214  A    between atoms: _514  and  _517
REMARK  215  A    between atoms: _517  and  _518
REMARK  216  A    between atoms: _523  and  _525
REMARK  217  A    between atoms: _525  and  _526
REMARK  218  A    between atoms: _525  and  _528
REMARK  219  A    between atoms: _528  and  _529
REMARK  220  A    between atoms: _532  and  _534
REMARK  221  A    between atoms: _534  and  _535
REMARK  222  A    between atoms: _534  and  _537
REMARK  223  A    between atoms: _537  and  _538
REMARK  224  A    between atoms: _541  and  _543
REMARK  225  A    between atoms: _543  and  _544
REMARK  226  A    between atoms: _546  and  _548
REMARK  227  A    between atoms: _548  and  _549
REMARK  228  A    between atoms: _548  and  _551
REMARK  229  A    between atoms: _551  and  _552
REMARK  230  A    between atoms: _552  and  _553
REMARK  231  A    between atoms: _553  and  _554
REMARK  232  A    between atoms: _563  and  _565
REMARK  233  A    between atoms: _565  and  _566
REMARK  234  A    between atoms: _565  and  _568
REMARK  235  A    between atoms: _568  and  _569
REMARK                            x       y       z     vdW  Elec       q    Type
REMARK                         _______ _______ _______ _____ _____    ______ ____
ROOT
ATOM      1  O   HOH     1      22.112   8.886   6.421  0.00  0.00    +0.000 OA
ENDROOT
TORSDOF 0
REMARK  Name = ../refined-set-2016/1sdt/1sdt_pocket.pdb
REMARK  235 active torsions:
REMARK  status: ('A' for Active; 'I' for Inactive)
REMARK    1  A    between atoms: _1  and  _3
REMARK    2  A    between atoms: _3  and  _4
REMARK    3  A    between atoms: _3  and  _6
REMARK    4  A    between atoms: _6  and  _7
REMARK    5  A    between atoms: _7  and  _8
REMARK    6  A    between atoms: _8  and  _9
REMARK    7  A    between atoms: _18  and  _20
REMARK    8  A    between atoms: _20  and  _21
REMARK    9  A    between atoms: _20  and  _23
REMARK   10  A    between atoms: _23  and  _24
REMARK   11  A    between atoms: _27  and  _29
REMARK   12  A    between atoms: _29  and  _30
REMARK   13  A    between atoms: _29  and  _32
REMARK   14  A    between atoms: _32  and  _33
REMARK   15  A    between atoms: _36  and  _38
REMARK   16  A    between atoms: _38  and  _39
REMARK   17  A    between atoms: _38  and  _41
REMARK   18  A    between atoms: _41  and  _42
REMARK   19  A    between atoms: _45  and  _47
REMARK   20  A    between atoms: _47  and  _48
REMARK   21  A    between atoms: _47  and  _50
REMARK   22  A    between atoms: _50  and  _51
REMARK   23  A    between atoms: _54  and  _56
REMARK   24  A    between atoms: _56  and  _57
REMARK   25  A    between atoms: _56  and  _59
REMARK   26  A    between atoms: _59  and  _60
REMARK   27  A    between atoms: _63  and  _65
REMARK   28  A    between atoms: _65  and  _66
REMARK   29  A    between atoms: _68  and  _70
REMARK   30  A    between atoms: _70  and  _71
REMARK   31  A    between atoms: _74  and  _76
REMARK   32  A    between atoms: _76  and  _77
REMARK   33  A    between atoms: _76  and  _79
REMARK   34  A    between atoms: _79  and  _80
REMARK   35  A    between atoms: _83  and  _85
REMARK   36  A    between atoms: _85  and  _86
REMARK   37  A    between atoms: _85  and  _88
REMARK   38  A    between atoms: _88  and  _89
REMARK   39  A    between atoms: _92  and  _94
REMARK   40  A    between atoms: _94  and  _95
REMARK   41  A    between atoms: _94  and  _97
REMARK   42  A    between atoms: _97  and  _98
REMARK   43  A    between atoms: _101  and  _103
REMARK   44  A    between atoms: _103  and  _104
REMARK   45  A    between atoms: _103  and  _106
REMARK   46  A    between atoms: _109  and  _111
REMARK   47  A    between atoms: _111  and  _112
REMARK   48  A    between atoms: _111  and  _114
REMARK   49  A    between atoms: _114  and  _115
REMARK   50  A    between atoms: _115  and  _116
REMARK   51  A    between atoms: _116  and  _117
REMARK   52  A    between atoms: _117  and  _118
REMARK   53  A    between atoms: _122  and  _124
REMARK   54  A    between atoms: _124  and  _125
REMARK   55  A    between atoms: _124  and  _127
REMARK   56  A    between atoms: _127  and  _128
REMARK   57  A    between atoms: _128  and  _129
REMARK   58  A    between atoms: _131  and  _133
REMARK   59  A    between atoms: _133  and  _134
REMARK   60  A    between atoms: _133  and  _136
REMARK   61  A    between atoms: _136  and  _137
REMARK   62  A    between atoms: _140  and  _142
REMARK   63  A    between atoms: _142  and  _143
REMARK   64  A    between atoms: _145  and  _147
REMARK   65  A    between atoms: _147  and  _148
REMARK   66  A    between atoms: _150  and  _152
REMARK   67  A    between atoms: _152  and  _153
REMARK   68  A    between atoms: _152  and  _155
REMARK   69  A    between atoms: _155  and  _156
REMARK   70  A    between atoms: _159  and  _161
REMARK   71  A    between atoms: _161  and  _162
REMARK   72  A    between atoms: _164  and  _166
REMARK   73  A    between atoms: _166  and  _167
REMARK   74  A    between atoms: _169  and  _171
REMARK   75  A    between atoms: _171  and  _172
REMARK   76  A    between atoms: _171  and  _174
REMARK   77  A    between atoms: _174  and  _175
REMARK   78  A    between atoms: _181  and  _183
REMARK   79  A    between atoms: _183  and  _184
REMARK   80  A    between atoms: _183  and  _186
REMARK   81  A    between atoms: _186  and  _187
REMARK   82  A    between atoms: _190  and  _192
REMARK   83  A    between atoms: _192  and  _193
REMARK   84  A    between atoms: _192  and  _195
REMARK   85  A    between atoms: _198  and  _200
REMARK   86  A    between atoms: _200  and  _201
REMARK   87  A    between atoms: _200  and  _203
REMARK   88  A    between atoms: _203  and  _204
REMARK   89  A    between atoms: _207  and  _209
REMARK   90  A    between atoms: _209  and  _210
REMARK   91  A    between atoms: _209  and  _212
REMARK   92  A    between atoms: _212  and  _213
REMARK   93  A    between atoms: _217  and  _218
REMARK   94  A    between atoms: _223  and  _225
REMARK   95  A    between atoms: _225  and  _226
REMARK   96  A    between atoms: _225  and  _228
REMARK   97  A    between atoms: _231  and  _233
REMARK   98  A    between atoms: _233  and  _234
REMARK   99  A    between atoms: _233  and  _236
REMARK  100  A    between atoms: _236  and  _237
REMARK  101  A    between atoms: _242  and  _244
REMARK  102  A    between atoms: _244  and  _245
REMARK  103  A    between atoms: _244  and  _247
REMARK  104  A    between atoms: _247  and  _248
REMARK  105  A    between atoms: _251  and  _253
REMARK  106  A    between atoms: _253  and  _254
REMARK  107  A    between atoms: _253  and  _256
REMARK  108  A    between atoms: _256  and  _257
REMARK  109  A    between atoms: _260  and  _262
REMARK  110  A    between atoms: _262  and  _263
REMARK  111  A    between atoms: _265  and  _267
REMARK  112  A    between atoms: _267  and  _268
REMARK  113  A    between atoms: _267  and  _270
REMARK  114  A    between atoms: _270  and  _271
REMARK  115  A    between atoms: _271  and  _272
REMARK  116  A    between atoms: _272  and  _273
REMARK  117  A    between atoms: _282  and  _284
REMARK  118  A    between atoms: _284  and  _285
REMARK  119  A    between atoms: _284  and  _287
REMARK  120  A    between atoms: _288  and  _289
REMARK  121  A    between atoms: _289  and  _290
REMARK  122  A    between atoms: _299  and  _301
REMARK  123  A    between atoms: _301  and  _302
REMARK  124  A    between atoms: _301  and  _304
REMARK  125  A    between atoms: _304  and  _305
REMARK  126  A    between atoms: _308  and  _310
REMARK  127  A    between atoms: _310  and  _311
REMARK  128  A    between atoms: _310  and  _313
REMARK  129  A    between atoms: _313  and  _314
REMARK  130  A    between atoms: _317  and  _319
REMARK  131  A    between atoms: _319  and  _320
REMARK  132  A    between atoms: _319  and  _322
REMARK  133  A    between atoms: _322  and  _323
REMARK  134  A    between atoms: _326  and  _328
REMARK  135  A    between atoms: _328  and  _329
REMARK  136  A    between atoms: _328  and  _331
REMARK  137  A    between atoms: _331  and  _332
REMARK  138  A    between atoms: _335  and  _337
REMARK  139  A    between atoms: _337  and  _338
REMARK  140  A    between atoms: _340  and  _342
REMARK  141  A    between atoms: _342  and  _343
REMARK  142  A    between atoms: _346  and  _348
REMARK  143  A    between atoms: _348  and  _349
REMARK  144  A    between atoms: _348  and  _351
REMARK  145  A    between atoms: _351  and  _352
REMARK  146  A    between atoms: _355  and  _357
REMARK  147  A    between atoms: _357  and  _358
REMARK  148  A    between atoms: _357  and  _360
REMARK  149  A    between atoms: _360  and  _361
REMARK  150  A    between atoms: _364  and  _366
REMARK  151  A    between atoms: _366  and  _367
REMARK  152  A    between atoms: _366  and  _369
REMARK  153  A    between atoms: _369  and  _370
REMARK  154  A    between atoms: _373  and  _375
REMARK  155  A    between atoms: _375  and  _376
REMARK  156  A    between atoms: _375  and  _378
REMARK  157  A    between atoms: _381  and  _383
REMARK  158  A    between atoms: _383  and  _384
REMARK  159  A    between atoms: _383  and  _386
REMARK  160  A    between atoms: _386  and  _387
REMARK  161  A    between atoms: _390  and  _392
REMARK  162  A    between atoms: _392  and  _393
REMARK  163  A    between atoms: _392  and  _395
REMARK  164  A    between atoms: _395  and  _396
REMARK  165  A    between atoms: _396  and  _397
REMARK  166  A    between atoms: _397  and  _398
REMARK  167  A    between atoms: _398  and  _399
REMARK  168  A    between atoms: _403  and  _405
REMARK  169  A    between atoms: _405  and  _406
REMARK  170  A    between atoms: _405  and  _408
REMARK  171  A    between atoms: _408  and  _409
REMARK  172  A    between atoms: _409  and  _410
REMARK  173  A    between atoms: _412  and  _414
REMARK  174  A    between atoms: _414  and  _415
REMARK  175  A    between atoms: _414  and  _417
REMARK  176  A    between atoms: _417  and  _418
REMARK  177  A    between atoms: _421  and  _423
REMARK  178  A    between atoms: _423  and  _424
REMARK  179  A    between atoms: _426  and  _428
REMARK  180  A    between atoms: _428  and  _429
REMARK  181  A    between atoms: _431  and  _433
REMARK  182  A    between atoms: _433  and  _434
REMARK  183  A    between atoms: _433  and  _436
REMARK  184  A    between atoms: _436  and  _437
REMARK  185  A    between atoms: _440  and  _442
REMARK  186  A    between atoms: _442  and  _443
REMARK  187  A    between atoms: _445  and  _447
REMARK  188  A    between atoms: _447  and  _448
REMARK  189  A    between atoms: _450  and  _452
REMARK  190  A    between atoms: _452  and  _453
REMARK  191  A    between atoms: _452  and  _455
REMARK  192  A    between atoms: _455  and  _456
REMARK  193  A    between atoms: _462  and  _464
REMARK  194  A    between atoms: _464  and  _465
REMARK  195  A    between atoms: _464  and  _467
REMARK  196  A    between atoms: _467  and  _468
REMARK  197  A    between atoms: _471  and  _473
REMARK  198  A    between atoms: _473  and  _474
REMARK  199  A    between atoms: _473  and  _476
REMARK  200  A    between atoms: _479  and  _481
REMARK  201  A    between atoms: _481  and  _482
REMARK  202  A    between atoms: _481  and  _484
REMARK  203  A    between atoms: _484  and  _485
REMARK  204  A    between atoms: _488  and  _490
REMARK  205  A    between atoms: _490  and  _491
REMARK  206  A    between atoms: _490  and  _493
REMARK  207  A    between atoms: _493  and  _494
REMARK  208  A    between atoms: _498  and  _499
REMARK  209  A    between atoms: _504  and  _506
REMARK  210  A    between atoms: _506  and  _507
REMARK  211  A    between atoms: _506  and  _509
REMARK  212  A    between atoms: _512  and  _514
REMARK  213  A    between atoms: _514  and  _515
REMARK  214  A    between atoms: _514  and  _517
REMARK  215  A    between atoms: _517  and  _518
REMARK  216  A    between atoms: _523  and  _525
REMARK  217  A    between atoms: _525  and  _526
REMARK  218  A    between atoms: _525  and  _528
REMARK  219  A    between atoms: _528  and  _529
REMARK  220  A    between atoms: _532  and  _534
REMARK  221  A    between atoms: _534  and  _535
REMARK  222  A    between atoms: _534  and  _537
REMARK  223  A    between atoms: _537  and  _538
REMARK  224  A    between atoms: _541  and  _543
REMARK  225  A    between atoms: _543  and  _544
REMARK  226  A    between atoms: _546  and  _548
REMARK  227  A    between atoms: _548  and  _549
REMARK  228  A    between atoms: _548  and  _551
REMARK  229  A    between atoms: _551  and  _552
REMARK  230  A    between atoms: _552  and  _553
REMARK  231  A    between atoms: _553  and  _554
REMARK  232  A    between atoms: _563  and  _565
REMARK  233  A    between atoms: _565  and  _566
REMARK  234  A    between atoms: _565  and  _568
REMARK  235  A    between atoms: _568  and  _569
REMARK                            x       y       z     vdW  Elec       q    Type
REMARK                         _______ _______ _______ _____ _____    ______ ____
ROOT
ATOM      1  O   HOH     1      15.916   6.766  -2.341  0.00  0.00    +0.000 OA
ENDROOT
TORSDOF 0
REMARK  Name = ../refined-set-2016/1sdt/1sdt_pocket.pdb
REMARK  235 active torsions:
REMARK  status: ('A' for Active; 'I' for Inactive)
REMARK    1  A    between atoms: _1  and  _3
REMARK    2  A    between atoms: _3  and  _4
REMARK    3  A    between atoms: _3  and  _6
REMARK    4  A    between atoms: _6  and  _7
REMARK    5  A    between atoms: _7  and  _8
REMARK    6  A    between atoms: _8  and  _9
REMARK    7  A    between atoms: _18  and  _20
REMARK    8  A    between atoms: _20  and  _21
REMARK    9  A    between atoms: _20  and  _23
REMARK   10  A    between atoms: _23  and  _24
REMARK   11  A    between atoms: _27  and  _29
REMARK   12  A    between atoms: _29  and  _30
REMARK   13  A    between atoms: _29  and  _32
REMARK   14  A    between atoms: _32  and  _33
REMARK   15  A    between atoms: _36  and  _38
REMARK   16  A    between atoms: _38  and  _39
REMARK   17  A    between atoms: _38  and  _41
REMARK   18  A    between atoms: _41  and  _42
REMARK   19  A    between atoms: _45  and  _47
REMARK   20  A    between atoms: _47  and  _48
REMARK   21  A    between atoms: _47  and  _50
REMARK   22  A    between atoms: _50  and  _51
REMARK   23  A    between atoms: _54  and  _56
REMARK   24  A    between atoms: _56  and  _57
REMARK   25  A    between atoms: _56  and  _59
REMARK   26  A    between atoms: _59  and  _60
REMARK   27  A    between atoms: _63  and  _65
REMARK   28  A    between atoms: _65  and  _66
REMARK   29  A    between atoms: _68  and  _70
REMARK   30  A    between atoms: _70  and  _71
REMARK   31  A    between atoms: _74  and  _76
REMARK   32  A    between atoms: _76  and  _77
REMARK   33  A    between atoms: _76  and  _79
REMARK   34  A    between atoms: _79  and  _80
REMARK   35  A    between atoms: _83  and  _85
REMARK   36  A    between atoms: _85  and  _86
REMARK   37  A    between atoms: _85  and  _88
REMARK   38  A    between atoms: _88  and  _89
REMARK   39  A    between atoms: _92  and  _94
REMARK   40  A    between atoms: _94  and  _95
REMARK   41  A    between atoms: _94  and  _97
REMARK   42  A    between atoms: _97  and  _98
REMARK   43  A    between atoms: _101  and  _103
REMARK   44  A    between atoms: _103  and  _104
REMARK   45  A    between atoms: _103  and  _106
REMARK   46  A    between atoms: _109  and  _111
REMARK   47  A    between atoms: _111  and  _112
REMARK   48  A    between atoms: _111  and  _114
REMARK   49  A    between atoms: _114  and  _115
REMARK   50  A    between atoms: _115  and  _116
REMARK   51  A    between atoms: _116  and  _117
REMARK   52  A    between atoms: _117  and  _118
REMARK   53  A    between atoms: _122  and  _124
REMARK   54  A    between atoms: _124  and  _125
REMARK   55  A    between atoms: _124  and  _127
REMARK   56  A    between atoms: _127  and  _128
REMARK   57  A    between atoms: _128  and  _129
REMARK   58  A    between atoms: _131  and  _133
REMARK   59  A    between atoms: _133  and  _134
REMARK   60  A    between atoms: _133  and  _136
REMARK   61  A    between atoms: _136  and  _137
REMARK   62  A    between atoms: _140  and  _142
REMARK   63  A    between atoms: _142  and  _143
REMARK   64  A    between atoms: _145  and  _147
REMARK   65  A    between atoms: _147  and  _148
REMARK   66  A    between atoms: _150  and  _152
REMARK   67  A    between atoms: _152  and  _153
REMARK   68  A    between atoms: _152  and  _155
REMARK   69  A    between atoms: _155  and  _156
REMARK   70  A    between atoms: _159  and  _161
REMARK   71  A    between atoms: _161  and  _162
REMARK   72  A    between atoms: _164  and  _166
REMARK   73  A    between atoms: _166  and  _167
REMARK   74  A    between atoms: _169  and  _171
REMARK   75  A    between atoms: _171  and  _172
REMARK   76  A    between atoms: _171  and  _174
REMARK   77  A    between atoms: _174  and  _175
REMARK   78  A    between atoms: _181  and  _183
REMARK   79  A    between atoms: _183  and  _184
REMARK   80  A    between atoms: _183  and  _186
REMARK   81  A    between atoms: _186  and  _187
REMARK   82  A    between atoms: _190  and  _192
REMARK   83  A    between atoms: _192  and  _193
REMARK   84  A    between atoms: _192  and  _195
REMARK   85  A    between atoms: _198  and  _200
REMARK   86  A    between atoms: _200  and  _201
REMARK   87  A    between atoms: _200  and  _203
REMARK   88  A    between atoms: _203  and  _204
REMARK   89  A    between atoms: _207  and  _209
REMARK   90  A    between atoms: _209  and  _210
REMARK   91  A    between atoms: _209  and  _212
REMARK   92  A    between atoms: _212  and  _213
REMARK   93  A    between atoms: _217  and  _218
REMARK   94  A    between atoms: _223  and  _225
REMARK   95  A    between atoms: _225  and  _226
REMARK   96  A    between atoms: _225  and  _228
REMARK   97  A    between atoms: _231  and  _233
REMARK   98  A    between atoms: _233  and  _234
REMARK   99  A    between atoms: _233  and  _236
REMARK  100  A    between atoms: _236  and  _237
REMARK  101  A    between atoms: _242  and  _244
REMARK  102  A    between atoms: _244  and  _245
REMARK  103  A    between atoms: _244  and  _247
REMARK  104  A    between atoms: _247  and  _248
REMARK  105  A    between atoms: _251  and  _253
REMARK  106  A    between atoms: _253  and  _254
REMARK  107  A    between atoms: _253  and  _256
REMARK  108  A    between atoms: _256  and  _257
REMARK  109  A    between atoms: _260  and  _262
REMARK  110  A    between atoms: _262  and  _263
REMARK  111  A    between atoms: _265  and  _267
REMARK  112  A    between atoms: _267  and  _268
REMARK  113  A    between atoms: _267  and  _270
REMARK  114  A    between atoms: _270  and  _271
REMARK  115  A    between atoms: _271  and  _272
REMARK  116  A    between atoms: _272  and  _273
REMARK  117  A    between atoms: _282  and  _284
REMARK  118  A    between atoms: _284  and  _285
REMARK  119  A    between atoms: _284  and  _287
REMARK  120  A    between atoms: _288  and  _289
REMARK  121  A    between atoms: _289  and  _290
REMARK  122  A    between atoms: _299  and  _301
REMARK  123  A    between atoms: _301  and  _302
REMARK  124  A    between atoms: _301  and  _304
REMARK  125  A    between atoms: _304  and  _305
REMARK  126  A    between atoms: _308  and  _310
REMARK  127  A    between atoms: _310  and  _311
REMARK  128  A    between atoms: _310  and  _313
REMARK  129  A    between atoms: _313  and  _314
REMARK  130  A    between atoms: _317  and  _319
REMARK  131  A    between atoms: _319  and  _320
REMARK  132  A    between atoms: _319  and  _322
REMARK  133  A    between atoms: _322  and  _323
REMARK  134  A    between atoms: _326  and  _328
REMARK  135  A    between atoms: _328  and  _329
REMARK  136  A    between atoms: _328  and  _331
REMARK  137  A    between atoms: _331  and  _332
REMARK  138  A    between atoms: _335  and  _337
REMARK  139  A    between atoms: _337  and  _338
REMARK  140  A    between atoms: _340  and  _342
REMARK  141  A    between atoms: _342  and  _343
REMARK  142  A    between atoms: _346  and  _348
REMARK  143  A    between atoms: _348  and  _349
REMARK  144  A    between atoms: _348  and  _351
REMARK  145  A    between atoms: _351  and  _352
REMARK  146  A    between atoms: _355  and  _357
REMARK  147  A    between atoms: _357  and  _358
REMARK  148  A    between atoms: _357  and  _360
REMARK  149  A    between atoms: _360  and  _361
REMARK  150  A    between atoms: _364  and  _366
REMARK  151  A    between atoms: _366  and  _367
REMARK  152  A    between atoms: _366  and  _369
REMARK  153  A    between atoms: _369  and  _370
REMARK  154  A    between atoms: _373  and  _375
REMARK  155  A    between atoms: _375  and  _376
REMARK  156  A    between atoms: _375  and  _378
REMARK  157  A    between atoms: _381  and  _383
REMARK  158  A    between atoms: _383  and  _384
REMARK  159  A    between atoms: _383  and  _386
REMARK  160  A    between atoms: _386  and  _387
REMARK  161  A    between atoms: _390  and  _392
REMARK  162  A    between atoms: _392  and  _393
REMARK  163  A    between atoms: _392  and  _395
REMARK  164  A    between atoms: _395  and  _396
REMARK  165  A    between atoms: _396  and  _397
REMARK  166  A    between atoms: _397  and  _398
REMARK  167  A    between atoms: _398  and  _399
REMARK  168  A    between atoms: _403  and  _405
REMARK  169  A    between atoms: _405  and  _406
REMARK  170  A    between atoms: _405  and  _408
REMARK  171  A    between atoms: _408  and  _409
REMARK  172  A    between atoms: _409  and  _410
REMARK  173  A    between atoms: _412  and  _414
REMARK  174  A    between atoms: _414  and  _415
REMARK  175  A    between atoms: _414  and  _417
REMARK  176  A    between atoms: _417  and  _418
REMARK  177  A    between atoms: _421  and  _423
REMARK  178  A    between atoms: _423  and  _424
REMARK  179  A    between atoms: _426  and  _428
REMARK  180  A    between atoms: _428  and  _429
REMARK  181  A    between atoms: _431  and  _433
REMARK  182  A    between atoms: _433  and  _434
REMARK  183  A    between atoms: _433  and  _436
REMARK  184  A    between atoms: _436  and  _437
REMARK  185  A    between atoms: _440  and  _442
REMARK  186  A    between atoms: _442  and  _443
REMARK  187  A    between atoms: _445  and  _447
REMARK  188  A    between atoms: _447  and  _448
REMARK  189  A    between atoms: _450  and  _452
REMARK  190  A    between atoms: _452  and  _453
REMARK  191  A    between atoms: _452  and  _455
REMARK  192  A    between atoms: _455  and  _456
REMARK  193  A    between atoms: _462  and  _464
REMARK  194  A    between atoms: _464  and  _465
REMARK  195  A    between atoms: _464  and  _467
REMARK  196  A    between atoms: _467  and  _468
REMARK  197  A    between atoms: _471  and  _473
REMARK  198  A    between atoms: _473  and  _474
REMARK  199  A    between atoms: _473  and  _476
REMARK  200  A    between atoms: _479  and  _481
REMARK  201  A    between atoms: _481  and  _482
REMARK  202  A    between atoms: _481  and  _484
REMARK  203  A    between atoms: _484  and  _485
REMARK  204  A    between atoms: _488  and  _490
REMARK  205  A    between atoms: _490  and  _491
REMARK  206  A    between atoms: _490  and  _493
REMARK  207  A    between atoms: _493  and  _494
REMARK  208  A    between atoms: _498  and  _499
REMARK  209  A    between atoms: _504  and  _506
REMARK  210  A    between atoms: _506  and  _507
REMARK  211  A    between atoms: _506  and  _509
REMARK  212  A    between atoms: _512  and  _514
REMARK  213  A    between atoms: _514  and  _515
REMARK  214  A    between atoms: _514  and  _517
REMARK  215  A    between atoms: _517  and  _518
REMARK  216  A    between atoms: _523  and  _525
REMARK  217  A    between atoms: _525  and  _526
REMARK  218  A    between atoms: _525  and  _528
REMARK  219  A    between atoms: _528  and  _529
REMARK  220  A    between atoms: _532  and  _534
REMARK  221  A    between atoms: _534  and  _535
REMARK  222  A    between atoms: _534  and  _537
REMARK  223  A    between atoms: _537  and  _538
REMARK  224  A    between atoms: _541  and  _543
REMARK  225  A    between atoms: _543  and  _544
REMARK  226  A    between atoms: _546  and  _548
REMARK  227  A    between atoms: _548  and  _549
REMARK  228  A    between atoms: _548  and  _551
REMARK  229  A    between atoms: _551  and  _552
REMARK  230  A    between atoms: _552  and  _553
REMARK  231  A    between atoms: _553  and  _554
REMARK  232  A    between atoms: _563  and  _565
REMARK  233  A    between atoms: _565  and  _566
REMARK  234  A    between atoms: _565  and  _568
REMARK  235  A    between atoms: _568  and  _569
REMARK                            x       y       z     vdW  Elec       q    Type
REMARK                         _______ _______ _______ _____ _____    ______ ____
ROOT
ATOM      1  O   HOH     1      15.493  15.618  11.416  0.00  0.00    +0.000 OA
ENDROOT
TORSDOF 0
REMARK  Name = ../refined-set-2016/1sdt/1sdt_pocket.pdb
REMARK  235 active torsions:
REMARK  status: ('A' for Active; 'I' for Inactive)
REMARK    1  A    between atoms: _1  and  _3
REMARK    2  A    between atoms: _3  and  _4
REMARK    3  A    between atoms: _3  and  _6
REMARK    4  A    between atoms: _6  and  _7
REMARK    5  A    between atoms: _7  and  _8
REMARK    6  A    between atoms: _8  and  _9
REMARK    7  A    between atoms: _18  and  _20
REMARK    8  A    between atoms: _20  and  _21
REMARK    9  A    between atoms: _20  and  _23
REMARK   10  A    between atoms: _23  and  _24
REMARK   11  A    between atoms: _27  and  _29
REMARK   12  A    between atoms: _29  and  _30
REMARK   13  A    between atoms: _29  and  _32
REMARK   14  A    between atoms: _32  and  _33
REMARK   15  A    between atoms: _36  and  _38
REMARK   16  A    between atoms: _38  and  _39
REMARK   17  A    between atoms: _38  and  _41
REMARK   18  A    between atoms: _41  and  _42
REMARK   19  A    between atoms: _45  and  _47
REMARK   20  A    between atoms: _47  and  _48
REMARK   21  A    between atoms: _47  and  _50
REMARK   22  A    between atoms: _50  and  _51
REMARK   23  A    between atoms: _54  and  _56
REMARK   24  A    between atoms: _56  and  _57
REMARK   25  A    between atoms: _56  and  _59
REMARK   26  A    between atoms: _59  and  _60
REMARK   27  A    between atoms: _63  and  _65
REMARK   28  A    between atoms: _65  and  _66
REMARK   29  A    between atoms: _68  and  _70
REMARK   30  A    between atoms: _70  and  _71
REMARK   31  A    between atoms: _74  and  _76
REMARK   32  A    between atoms: _76  and  _77
REMARK   33  A    between atoms: _76  and  _79
REMARK   34  A    between atoms: _79  and  _80
REMARK   35  A    between atoms: _83  and  _85
REMARK   36  A    between atoms: _85  and  _86
REMARK   37  A    between atoms: _85  and  _88
REMARK   38  A    between atoms: _88  and  _89
REMARK   39  A    between atoms: _92  and  _94
REMARK   40  A    between atoms: _94  and  _95
REMARK   41  A    between atoms: _94  and  _97
REMARK   42  A    between atoms: _97  and  _98
REMARK   43  A    between atoms: _101  and  _103
REMARK   44  A    between atoms: _103  and  _104
REMARK   45  A    between atoms: _103  and  _106
REMARK   46  A    between atoms: _109  and  _111
REMARK   47  A    between atoms: _111  and  _112
REMARK   48  A    between atoms: _111  and  _114
REMARK   49  A    between atoms: _114  and  _115
REMARK   50  A    between atoms: _115  and  _116
REMARK   51  A    between atoms: _116  and  _117
REMARK   52  A    between atoms: _117  and  _118
REMARK   53  A    between atoms: _122  and  _124
REMARK   54  A    between atoms: _124  and  _125
REMARK   55  A    between atoms: _124  and  _127
REMARK   56  A    between atoms: _127  and  _128
REMARK   57  A    between atoms: _128  and  _129
REMARK   58  A    between atoms: _131  and  _133
REMARK   59  A    between atoms: _133  and  _134
REMARK   60  A    between atoms: _133  and  _136
REMARK   61  A    between atoms: _136  and  _137
REMARK   62  A    between atoms: _140  and  _142
REMARK   63  A    between atoms: _142  and  _143
REMARK   64  A    between atoms: _145  and  _147
REMARK   65  A    between atoms: _147  and  _148
REMARK   66  A    between atoms: _150  and  _152
REMARK   67  A    between atoms: _152  and  _153
REMARK   68  A    between atoms: _152  and  _155
REMARK   69  A    between atoms: _155  and  _156
REMARK   70  A    between atoms: _159  and  _161
REMARK   71  A    between atoms: _161  and  _162
REMARK   72  A    between atoms: _164  and  _166
REMARK   73  A    between atoms: _166  and  _167
REMARK   74  A    between atoms: _169  and  _171
REMARK   75  A    between atoms: _171  and  _172
REMARK   76  A    between atoms: _171  and  _174
REMARK   77  A    between atoms: _174  and  _175
REMARK   78  A    between atoms: _181  and  _183
REMARK   79  A    between atoms: _183  and  _184
REMARK   80  A    between atoms: _183  and  _186
REMARK   81  A    between atoms: _186  and  _187
REMARK   82  A    between atoms: _190  and  _192
REMARK   83  A    between atoms: _192  and  _193
REMARK   84  A    between atoms: _192  and  _195
REMARK   85  A    between atoms: _198  and  _200
REMARK   86  A    between atoms: _200  and  _201
REMARK   87  A    between atoms: _200  and  _203
REMARK   88  A    between atoms: _203  and  _204
REMARK   89  A    between atoms: _207  and  _209
REMARK   90  A    between atoms: _209  and  _210
REMARK   91  A    between atoms: _209  and  _212
REMARK   92  A    between atoms: _212  and  _213
REMARK   93  A    between atoms: _217  and  _218
REMARK   94  A    between atoms: _223  and  _225
REMARK   95  A    between atoms: _225  and  _226
REMARK   96  A    between atoms: _225  and  _228
REMARK   97  A    between atoms: _231  and  _233
REMARK   98  A    between atoms: _233  and  _234
REMARK   99  A    between atoms: _233  and  _236
REMARK  100  A    between atoms: _236  and  _237
REMARK  101  A    between atoms: _242  and  _244
REMARK  102  A    between atoms: _244  and  _245
REMARK  103  A    between atoms: _244  and  _247
REMARK  104  A    between atoms: _247  and  _248
REMARK  105  A    between atoms: _251  and  _253
REMARK  106  A    between atoms: _253  and  _254
REMARK  107  A    between atoms: _253  and  _256
REMARK  108  A    between atoms: _256  and  _257
REMARK  109  A    between atoms: _260  and  _262
REMARK  110  A    between atoms: _262  and  _263
REMARK  111  A    between atoms: _265  and  _267
REMARK  112  A    between atoms: _267  and  _268
REMARK  113  A    between atoms: _267  and  _270
REMARK  114  A    between atoms: _270  and  _271
REMARK  115  A    between atoms: _271  and  _272
REMARK  116  A    between atoms: _272  and  _273
REMARK  117  A    between atoms: _282  and  _284
REMARK  118  A    between atoms: _284  and  _285
REMARK  119  A    between atoms: _284  and  _287
REMARK  120  A    between atoms: _288  and  _289
REMARK  121  A    between atoms: _289  and  _290
REMARK  122  A    between atoms: _299  and  _301
REMARK  123  A    between atoms: _301  and  _302
REMARK  124  A    between atoms: _301  and  _304
REMARK  125  A    between atoms: _304  and  _305
REMARK  126  A    between atoms: _308  and  _310
REMARK  127  A    between atoms: _310  and  _311
REMARK  128  A    between atoms: _310  and  _313
REMARK  129  A    between atoms: _313  and  _314
REMARK  130  A    between atoms: _317  and  _319
REMARK  131  A    between atoms: _319  and  _320
REMARK  132  A    between atoms: _319  and  _322
REMARK  133  A    between atoms: _322  and  _323
REMARK  134  A    between atoms: _326  and  _328
REMARK  135  A    between atoms: _328  and  _329
REMARK  136  A    between atoms: _328  and  _331
REMARK  137  A    between atoms: _331  and  _332
REMARK  138  A    between atoms: _335  and  _337
REMARK  139  A    between atoms: _337  and  _338
REMARK  140  A    between atoms: _340  and  _342
REMARK  141  A    between atoms: _342  and  _343
REMARK  142  A    between atoms: _346  and  _348
REMARK  143  A    between atoms: _348  and  _349
REMARK  144  A    between atoms: _348  and  _351
REMARK  145  A    between atoms: _351  and  _352
REMARK  146  A    between atoms: _355  and  _357
REMARK  147  A    between atoms: _357  and  _358
REMARK  148  A    between atoms: _357  and  _360
REMARK  149  A    between atoms: _360  and  _361
REMARK  150  A    between atoms: _364  and  _366
REMARK  151  A    between atoms: _366  and  _367
REMARK  152  A    between atoms: _366  and  _369
REMARK  153  A    between atoms: _369  and  _370
REMARK  154  A    between atoms: _373  and  _375
REMARK  155  A    between atoms: _375  and  _376
REMARK  156  A    between atoms: _375  and  _378
REMARK  157  A    between atoms: _381  and  _383
REMARK  158  A    between atoms: _383  and  _384
REMARK  159  A    between atoms: _383  and  _386
REMARK  160  A    between atoms: _386  and  _387
REMARK  161  A    between atoms: _390  and  _392
REMARK  162  A    between atoms: _392  and  _393
REMARK  163  A    between atoms: _392  and  _395
REMARK  164  A    between atoms: _395  and  _396
REMARK  165  A    between atoms: _396  and  _397
REMARK  166  A    between atoms: _397  and  _398
REMARK  167  A    between atoms: _398  and  _399
REMARK  168  A    between atoms: _403  and  _405
REMARK  169  A    between atoms: _405  and  _406
REMARK  170  A    between atoms: _405  and  _408
REMARK  171  A    between atoms: _408  and  _409
REMARK  172  A    between atoms: _409  and  _410
REMARK  173  A    between atoms: _412  and  _414
REMARK  174  A    between atoms: _414  and  _415
REMARK  175  A    between atoms: _414  and  _417
REMARK  176  A    between atoms: _417  and  _418
REMARK  177  A    between atoms: _421  and  _423
REMARK  178  A    between atoms: _423  and  _424
REMARK  179  A    between atoms: _426  and  _428
REMARK  180  A    between atoms: _428  and  _429
REMARK  181  A    between atoms: _431  and  _433
REMARK  182  A    between atoms: _433  and  _434
REMARK  183  A    between atoms: _433  and  _436
REMARK  184  A    between atoms: _436  and  _437
REMARK  185  A    between atoms: _440  and  _442
REMARK  186  A    between atoms: _442  and  _443
REMARK  187  A    between atoms: _445  and  _447
REMARK  188  A    between atoms: _447  and  _448
REMARK  189  A    between atoms: _450  and  _452
REMARK  190  A    between atoms: _452  and  _453
REMARK  191  A    between atoms: _452  and  _455
REMARK  192  A    between atoms: _455  and  _456
REMARK  193  A    between atoms: _462  and  _464
REMARK  194  A    between atoms: _464  and  _465
REMARK  195  A    between atoms: _464  and  _467
REMARK  196  A    between atoms: _467  and  _468
REMARK  197  A    between atoms: _471  and  _473
REMARK  198  A    between atoms: _473  and  _474
REMARK  199  A    between atoms: _473  and  _476
REMARK  200  A    between atoms: _479  and  _481
REMARK  201  A    between atoms: _481  and  _482
REMARK  202  A    between atoms: _481  and  _484
REMARK  203  A    between atoms: _484  and  _485
REMARK  204  A    between atoms: _488  and  _490
REMARK  205  A    between atoms: _490  and  _491
REMARK  206  A    between atoms: _490  and  _493
REMARK  207  A    between atoms: _493  and  _494
REMARK  208  A    between atoms: _498  and  _499
REMARK  209  A    between atoms: _504  and  _506
REMARK  210  A    between atoms: _506  and  _507
REMARK  211  A    between atoms: _506  and  _509
REMARK  212  A    between atoms: _512  and  _514
REMARK  213  A    between atoms: _514  and  _515
REMARK  214  A    between atoms: _514  and  _517
REMARK  215  A    between atoms: _517  and  _518
REMARK  216  A    between atoms: _523  and  _525
REMARK  217  A    between atoms: _525  and  _526
REMARK  218  A    between atoms: _525  and  _528
REMARK  219  A    between atoms: _528  and  _529
REMARK  220  A    between atoms: _532  and  _534
REMARK  221  A    between atoms: _534  and  _535
REMARK  222  A    between atoms: _534  and  _537
REMARK  223  A    between atoms: _537  and  _538
REMARK  224  A    between atoms: _541  and  _543
REMARK  225  A    between atoms: _543  and  _544
REMARK  226  A    between atoms: _546  and  _548
REMARK  227  A    between atoms: _548  and  _549
REMARK  228  A    between atoms: _548  and  _551
REMARK  229  A    between atoms: _551  and  _552
REMARK  230  A    between atoms: _552  and  _553
REMARK  231  A    between atoms: _553  and  _554
REMARK  232  A    between atoms: _563  and  _565
REMARK  233  A    between atoms: _565  and  _566
REMARK  234  A    between atoms: _565  and  _568
REMARK  235  A    between atoms: _568  and  _569
REMARK                            x       y       z     vdW  Elec       q    Type
REMARK                         _______ _______ _______ _____ _____    ______ ____
ROOT
ATOM      1  O   HOH     1      29.530  24.980  -2.814  0.00  0.00    +0.000 OA
ENDROOT
TORSDOF 0
REMARK  Name = ../refined-set-2016/1sdt/1sdt_pocket.pdb
REMARK  235 active torsions:
REMARK  status: ('A' for Active; 'I' for Inactive)
REMARK    1  A    between atoms: _1  and  _3
REMARK    2  A    between atoms: _3  and  _4
REMARK    3  A    between atoms: _3  and  _6
REMARK    4  A    between atoms: _6  and  _7
REMARK    5  A    between atoms: _7  and  _8
REMARK    6  A    between atoms: _8  and  _9
REMARK    7  A    between atoms: _18  and  _20
REMARK    8  A    between atoms: _20  and  _21
REMARK    9  A    between atoms: _20  and  _23
REMARK   10  A    between atoms: _23  and  _24
REMARK   11  A    between atoms: _27  and  _29
REMARK   12  A    between atoms: _29  and  _30
REMARK   13  A    between atoms: _29  and  _32
REMARK   14  A    between atoms: _32  and  _33
REMARK   15  A    between atoms: _36  and  _38
REMARK   16  A    between atoms: _38  and  _39
REMARK   17  A    between atoms: _38  and  _41
REMARK   18  A    between atoms: _41  and  _42
REMARK   19  A    between atoms: _45  and  _47
REMARK   20  A    between atoms: _47  and  _48
REMARK   21  A    between atoms: _47  and  _50
REMARK   22  A    between atoms: _50  and  _51
REMARK   23  A    between atoms: _54  and  _56
REMARK   24  A    between atoms: _56  and  _57
REMARK   25  A    between atoms: _56  and  _59
REMARK   26  A    between atoms: _59  and  _60
REMARK   27  A    between atoms: _63  and  _65
REMARK   28  A    between atoms: _65  and  _66
REMARK   29  A    between atoms: _68  and  _70
REMARK   30  A    between atoms: _70  and  _71
REMARK   31  A    between atoms: _74  and  _76
REMARK   32  A    between atoms: _76  and  _77
REMARK   33  A    between atoms: _76  and  _79
REMARK   34  A    between atoms: _79  and  _80
REMARK   35  A    between atoms: _83  and  _85
REMARK   36  A    between atoms: _85  and  _86
REMARK   37  A    between atoms: _85  and  _88
REMARK   38  A    between atoms: _88  and  _89
REMARK   39  A    between atoms: _92  and  _94
REMARK   40  A    between atoms: _94  and  _95
REMARK   41  A    between atoms: _94  and  _97
REMARK   42  A    between atoms: _97  and  _98
REMARK   43  A    between atoms: _101  and  _103
REMARK   44  A    between atoms: _103  and  _104
REMARK   45  A    between atoms: _103  and  _106
REMARK   46  A    between atoms: _109  and  _111
REMARK   47  A    between atoms: _111  and  _112
REMARK   48  A    between atoms: _111  and  _114
REMARK   49  A    between atoms: _114  and  _115
REMARK   50  A    between atoms: _115  and  _116
REMARK   51  A    between atoms: _116  and  _117
REMARK   52  A    between atoms: _117  and  _118
REMARK   53  A    between atoms: _122  and  _124
REMARK   54  A    between atoms: _124  and  _125
REMARK   55  A    between atoms: _124  and  _127
REMARK   56  A    between atoms: _127  and  _128
REMARK   57  A    between atoms: _128  and  _129
REMARK   58  A    between atoms: _131  and  _133
REMARK   59  A    between atoms: _133  and  _134
REMARK   60  A    between atoms: _133  and  _136
REMARK   61  A    between atoms: _136  and  _137
REMARK   62  A    between atoms: _140  and  _142
REMARK   63  A    between atoms: _142  and  _143
REMARK   64  A    between atoms: _145  and  _147
REMARK   65  A    between atoms: _147  and  _148
REMARK   66  A    between atoms: _150  and  _152
REMARK   67  A    between atoms: _152  and  _153
REMARK   68  A    between atoms: _152  and  _155
REMARK   69  A    between atoms: _155  and  _156
REMARK   70  A    between atoms: _159  and  _161
REMARK   71  A    between atoms: _161  and  _162
REMARK   72  A    between atoms: _164  and  _166
REMARK   73  A    between atoms: _166  and  _167
REMARK   74  A    between atoms: _169  and  _171
REMARK   75  A    between atoms: _171  and  _172
REMARK   76  A    between atoms: _171  and  _174
REMARK   77  A    between atoms: _174  and  _175
REMARK   78  A    between atoms: _181  and  _183
REMARK   79  A    between atoms: _183  and  _184
REMARK   80  A    between atoms: _183  and  _186
REMARK   81  A    between atoms: _186  and  _187
REMARK   82  A    between atoms: _190  and  _192
REMARK   83  A    between atoms: _192  and  _193
REMARK   84  A    between atoms: _192  and  _195
REMARK   85  A    between atoms: _198  and  _200
REMARK   86  A    between atoms: _200  and  _201
REMARK   87  A    between atoms: _200  and  _203
REMARK   88  A    between atoms: _203  and  _204
REMARK   89  A    between atoms: _207  and  _209
REMARK   90  A    between atoms: _209  and  _210
REMARK   91  A    between atoms: _209  and  _212
REMARK   92  A    between atoms: _212  and  _213
REMARK   93  A    between atoms: _217  and  _218
REMARK   94  A    between atoms: _223  and  _225
REMARK   95  A    between atoms: _225  and  _226
REMARK   96  A    between atoms: _225  and  _228
REMARK   97  A    between atoms: _231  and  _233
REMARK   98  A    between atoms: _233  and  _234
REMARK   99  A    between atoms: _233  and  _236
REMARK  100  A    between atoms: _236  and  _237
REMARK  101  A    between atoms: _242  and  _244
REMARK  102  A    between atoms: _244  and  _245
REMARK  103  A    between atoms: _244  and  _247
REMARK  104  A    between atoms: _247  and  _248
REMARK  105  A    between atoms: _251  and  _253
REMARK  106  A    between atoms: _253  and  _254
REMARK  107  A    between atoms: _253  and  _256
REMARK  108  A    between atoms: _256  and  _257
REMARK  109  A    between atoms: _260  and  _262
REMARK  110  A    between atoms: _262  and  _263
REMARK  111  A    between atoms: _265  and  _267
REMARK  112  A    between atoms: _267  and  _268
REMARK  113  A    between atoms: _267  and  _270
REMARK  114  A    between atoms: _270  and  _271
REMARK  115  A    between atoms: _271  and  _272
REMARK  116  A    between atoms: _272  and  _273
REMARK  117  A    between atoms: _282  and  _284
REMARK  118  A    between atoms: _284  and  _285
REMARK  119  A    between atoms: _284  and  _287
REMARK  120  A    between atoms: _288  and  _289
REMARK  121  A    between atoms: _289  and  _290
REMARK  122  A    between atoms: _299  and  _301
REMARK  123  A    between atoms: _301  and  _302
REMARK  124  A    between atoms: _301  and  _304
REMARK  125  A    between atoms: _304  and  _305
REMARK  126  A    between atoms: _308  and  _310
REMARK  127  A    between atoms: _310  and  _311
REMARK  128  A    between atoms: _310  and  _313
REMARK  129  A    between atoms: _313  and  _314
REMARK  130  A    between atoms: _317  and  _319
REMARK  131  A    between atoms: _319  and  _320
REMARK  132  A    between atoms: _319  and  _322
REMARK  133  A    between atoms: _322  and  _323
REMARK  134  A    between atoms: _326  and  _328
REMARK  135  A    between atoms: _328  and  _329
REMARK  136  A    between atoms: _328  and  _331
REMARK  137  A    between atoms: _331  and  _332
REMARK  138  A    between atoms: _335  and  _337
REMARK  139  A    between atoms: _337  and  _338
REMARK  140  A    between atoms: _340  and  _342
REMARK  141  A    between atoms: _342  and  _343
REMARK  142  A    between atoms: _346  and  _348
REMARK  143  A    between atoms: _348  and  _349
REMARK  144  A    between atoms: _348  and  _351
REMARK  145  A    between atoms: _351  and  _352
REMARK  146  A    between atoms: _355  and  _357
REMARK  147  A    between atoms: _357  and  _358
REMARK  148  A    between atoms: _357  and  _360
REMARK  149  A    between atoms: _360  and  _361
REMARK  150  A    between atoms: _364  and  _366
REMARK  151  A    between atoms: _366  and  _367
REMARK  152  A    between atoms: _366  and  _369
REMARK  153  A    between atoms: _369  and  _370
REMARK  154  A    between atoms: _373  and  _375
REMARK  155  A    between atoms: _375  and  _376
REMARK  156  A    between atoms: _375  and  _378
REMARK  157  A    between atoms: _381  and  _383
REMARK  158  A    between atoms: _383  and  _384
REMARK  159  A    between atoms: _383  and  _386
REMARK  160  A    between atoms: _386  and  _387
REMARK  161  A    between atoms: _390  and  _392
REMARK  162  A    between atoms: _392  and  _393
REMARK  163  A    between atoms: _392  and  _395
REMARK  164  A    between atoms: _395  and  _396
REMARK  165  A    between atoms: _396  and  _397
REMARK  166  A    between atoms: _397  and  _398
REMARK  167  A    between atoms: _398  and  _399
REMARK  168  A    between atoms: _403  and  _405
REMARK  169  A    between atoms: _405  and  _406
REMARK  170  A    between atoms: _405  and  _408
REMARK  171  A    between atoms: _408  and  _409
REMARK  172  A    between atoms: _409  and  _410
REMARK  173  A    between atoms: _412  and  _414
REMARK  174  A    between atoms: _414  and  _415
REMARK  175  A    between atoms: _414  and  _417
REMARK  176  A    between atoms: _417  and  _418
REMARK  177  A    between atoms: _421  and  _423
REMARK  178  A    between atoms: _423  and  _424
REMARK  179  A    between atoms: _426  and  _428
REMARK  180  A    between atoms: _428  and  _429
REMARK  181  A    between atoms: _431  and  _433
REMARK  182  A    between atoms: _433  and  _434
REMARK  183  A    between atoms: _433  and  _436
REMARK  184  A    between atoms: _436  and  _437
REMARK  185  A    between atoms: _440  and  _442
REMARK  186  A    between atoms: _442  and  _443
REMARK  187  A    between atoms: _445  and  _447
REMARK  188  A    between atoms: _447  and  _448
REMARK  189  A    between atoms: _450  and  _452
REMARK  190  A    between atoms: _452  and  _453
REMARK  191  A    between atoms: _452  and  _455
REMARK  192  A    between atoms: _455  and  _456
REMARK  193  A    between atoms: _462  and  _464
REMARK  194  A    between atoms: _464  and  _465
REMARK  195  A    between atoms: _464  and  _467
REMARK  196  A    between atoms: _467  and  _468
REMARK  197  A    between atoms: _471  and  _473
REMARK  198  A    between atoms: _473  and  _474
REMARK  199  A    between atoms: _473  and  _476
REMARK  200  A    between atoms: _479  and  _481
REMARK  201  A    between atoms: _481  and  _482
REMARK  202  A    between atoms: _481  and  _484
REMARK  203  A    between atoms: _484  and  _485
REMARK  204  A    between atoms: _488  and  _490
REMARK  205  A    between atoms: _490  and  _491
REMARK  206  A    between atoms: _490  and  _493
REMARK  207  A    between atoms: _493  and  _494
REMARK  208  A    between atoms: _498  and  _499
REMARK  209  A    between atoms: _504  and  _506
REMARK  210  A    between atoms: _506  and  _507
REMARK  211  A    between atoms: _506  and  _509
REMARK  212  A    between atoms: _512  and  _514
REMARK  213  A    between atoms: _514  and  _515
REMARK  214  A    between atoms: _514  and  _517
REMARK  215  A    between atoms: _517  and  _518
REMARK  216  A    between atoms: _523  and  _525
REMARK  217  A    between atoms: _525  and  _526
REMARK  218  A    between atoms: _525  and  _528
REMARK  219  A    between atoms: _528  and  _529
REMARK  220  A    between atoms: _532  and  _534
REMARK  221  A    between atoms: _534  and  _535
REMARK  222  A    between atoms: _534  and  _537
REMARK  223  A    between atoms: _537  and  _538
REMARK  224  A    between atoms: _541  and  _543
REMARK  225  A    between atoms: _543  and  _544
REMARK  226  A    between atoms: _546  and  _548
REMARK  227  A    between atoms: _548  and  _549
REMARK  228  A    between atoms: _548  and  _551
REMARK  229  A    between atoms: _551  and  _552
REMARK  230  A    between atoms: _552  and  _553
REMARK  231  A    between atoms: _553  and  _554
REMARK  232  A    between atoms: _563  and  _565
REMARK  233  A    between atoms: _565  and  _566
REMARK  234  A    between atoms: _565  and  _568
REMARK  235  A    between atoms: _568  and  _569
REMARK                            x       y       z     vdW  Elec       q    Type
REMARK                         _______ _______ _______ _____ _____    ______ ____
ROOT
ATOM      1  O   HOH     1      27.491  23.329  -2.888  0.00  0.00    +0.000 OA
ENDROOT
TORSDOF 0
REMARK  Name = ../refined-set-2016/1sdt/1sdt_pocket.pdb
REMARK  235 active torsions:
REMARK  status: ('A' for Active; 'I' for Inactive)
REMARK    1  A    between atoms: _1  and  _3
REMARK    2  A    between atoms: _3  and  _4
REMARK    3  A    between atoms: _3  and  _6
REMARK    4  A    between atoms: _6  and  _7
REMARK    5  A    between atoms: _7  and  _8
REMARK    6  A    between atoms: _8  and  _9
REMARK    7  A    between atoms: _18  and  _20
REMARK    8  A    between atoms: _20  and  _21
REMARK    9  A    between atoms: _20  and  _23
REMARK   10  A    between atoms: _23  and  _24
REMARK   11  A    between atoms: _27  and  _29
REMARK   12  A    between atoms: _29  and  _30
REMARK   13  A    between atoms: _29  and  _32
REMARK   14  A    between atoms: _32  and  _33
REMARK   15  A    between atoms: _36  and  _38
REMARK   16  A    between atoms: _38  and  _39
REMARK   17  A    between atoms: _38  and  _41
REMARK   18  A    between atoms: _41  and  _42
REMARK   19  A    between atoms: _45  and  _47
REMARK   20  A    between atoms: _47  and  _48
REMARK   21  A    between atoms: _47  and  _50
REMARK   22  A    between atoms: _50  and  _51
REMARK   23  A    between atoms: _54  and  _56
REMARK   24  A    between atoms: _56  and  _57
REMARK   25  A    between atoms: _56  and  _59
REMARK   26  A    between atoms: _59  and  _60
REMARK   27  A    between atoms: _63  and  _65
REMARK   28  A    between atoms: _65  and  _66
REMARK   29  A    between atoms: _68  and  _70
REMARK   30  A    between atoms: _70  and  _71
REMARK   31  A    between atoms: _74  and  _76
REMARK   32  A    between atoms: _76  and  _77
REMARK   33  A    between atoms: _76  and  _79
REMARK   34  A    between atoms: _79  and  _80
REMARK   35  A    between atoms: _83  and  _85
REMARK   36  A    between atoms: _85  and  _86
REMARK   37  A    between atoms: _85  and  _88
REMARK   38  A    between atoms: _88  and  _89
REMARK   39  A    between atoms: _92  and  _94
REMARK   40  A    between atoms: _94  and  _95
REMARK   41  A    between atoms: _94  and  _97
REMARK   42  A    between atoms: _97  and  _98
REMARK   43  A    between atoms: _101  and  _103
REMARK   44  A    between atoms: _103  and  _104
REMARK   45  A    between atoms: _103  and  _106
REMARK   46  A    between atoms: _109  and  _111
REMARK   47  A    between atoms: _111  and  _112
REMARK   48  A    between atoms: _111  and  _114
REMARK   49  A    between atoms: _114  and  _115
REMARK   50  A    between atoms: _115  and  _116
REMARK   51  A    between atoms: _116  and  _117
REMARK   52  A    between atoms: _117  and  _118
REMARK   53  A    between atoms: _122  and  _124
REMARK   54  A    between atoms: _124  and  _125
REMARK   55  A    between atoms: _124  and  _127
REMARK   56  A    between atoms: _127  and  _128
REMARK   57  A    between atoms: _128  and  _129
REMARK   58  A    between atoms: _131  and  _133
REMARK   59  A    between atoms: _133  and  _134
REMARK   60  A    between atoms: _133  and  _136
REMARK   61  A    between atoms: _136  and  _137
REMARK   62  A    between atoms: _140  and  _142
REMARK   63  A    between atoms: _142  and  _143
REMARK   64  A    between atoms: _145  and  _147
REMARK   65  A    between atoms: _147  and  _148
REMARK   66  A    between atoms: _150  and  _152
REMARK   67  A    between atoms: _152  and  _153
REMARK   68  A    between atoms: _152  and  _155
REMARK   69  A    between atoms: _155  and  _156
REMARK   70  A    between atoms: _159  and  _161
REMARK   71  A    between atoms: _161  and  _162
REMARK   72  A    between atoms: _164  and  _166
REMARK   73  A    between atoms: _166  and  _167
REMARK   74  A    between atoms: _169  and  _171
REMARK   75  A    between atoms: _171  and  _172
REMARK   76  A    between atoms: _171  and  _174
REMARK   77  A    between atoms: _174  and  _175
REMARK   78  A    between atoms: _181  and  _183
REMARK   79  A    between atoms: _183  and  _184
REMARK   80  A    between atoms: _183  and  _186
REMARK   81  A    between atoms: _186  and  _187
REMARK   82  A    between atoms: _190  and  _192
REMARK   83  A    between atoms: _192  and  _193
REMARK   84  A    between atoms: _192  and  _195
REMARK   85  A    between atoms: _198  and  _200
REMARK   86  A    between atoms: _200  and  _201
REMARK   87  A    between atoms: _200  and  _203
REMARK   88  A    between atoms: _203  and  _204
REMARK   89  A    between atoms: _207  and  _209
REMARK   90  A    between atoms: _209  and  _210
REMARK   91  A    between atoms: _209  and  _212
REMARK   92  A    between atoms: _212  and  _213
REMARK   93  A    between atoms: _217  and  _218
REMARK   94  A    between atoms: _223  and  _225
REMARK   95  A    between atoms: _225  and  _226
REMARK   96  A    between atoms: _225  and  _228
REMARK   97  A    between atoms: _231  and  _233
REMARK   98  A    between atoms: _233  and  _234
REMARK   99  A    between atoms: _233  and  _236
REMARK  100  A    between atoms: _236  and  _237
REMARK  101  A    between atoms: _242  and  _244
REMARK  102  A    between atoms: _244  and  _245
REMARK  103  A    between atoms: _244  and  _247
REMARK  104  A    between atoms: _247  and  _248
REMARK  105  A    between atoms: _251  and  _253
REMARK  106  A    between atoms: _253  and  _254
REMARK  107  A    between atoms: _253  and  _256
REMARK  108  A    between atoms: _256  and  _257
REMARK  109  A    between atoms: _260  and  _262
REMARK  110  A    between atoms: _262  and  _263
REMARK  111  A    between atoms: _265  and  _267
REMARK  112  A    between atoms: _267  and  _268
REMARK  113  A    between atoms: _267  and  _270
REMARK  114  A    between atoms: _270  and  _271
REMARK  115  A    between atoms: _271  and  _272
REMARK  116  A    between atoms: _272  and  _273
REMARK  117  A    between atoms: _282  and  _284
REMARK  118  A    between atoms: _284  and  _285
REMARK  119  A    between atoms: _284  and  _287
REMARK  120  A    between atoms: _288  and  _289
REMARK  121  A    between atoms: _289  and  _290
REMARK  122  A    between atoms: _299  and  _301
REMARK  123  A    between atoms: _301  and  _302
REMARK  124  A    between atoms: _301  and  _304
REMARK  125  A    between atoms: _304  and  _305
REMARK  126  A    between atoms: _308  and  _310
REMARK  127  A    between atoms: _310  and  _311
REMARK  128  A    between atoms: _310  and  _313
REMARK  129  A    between atoms: _313  and  _314
REMARK  130  A    between atoms: _317  and  _319
REMARK  131  A    between atoms: _319  and  _320
REMARK  132  A    between atoms: _319  and  _322
REMARK  133  A    between atoms: _322  and  _323
REMARK  134  A    between atoms: _326  and  _328
REMARK  135  A    between atoms: _328  and  _329
REMARK  136  A    between atoms: _328  and  _331
REMARK  137  A    between atoms: _331  and  _332
REMARK  138  A    between atoms: _335  and  _337
REMARK  139  A    between atoms: _337  and  _338
REMARK  140  A    between atoms: _340  and  _342
REMARK  141  A    between atoms: _342  and  _343
REMARK  142  A    between atoms: _346  and  _348
REMARK  143  A    between atoms: _348  and  _349
REMARK  144  A    between atoms: _348  and  _351
REMARK  145  A    between atoms: _351  and  _352
REMARK  146  A    between atoms: _355  and  _357
REMARK  147  A    between atoms: _357  and  _358
REMARK  148  A    between atoms: _357  and  _360
REMARK  149  A    between atoms: _360  and  _361
REMARK  150  A    between atoms: _364  and  _366
REMARK  151  A    between atoms: _366  and  _367
REMARK  152  A    between atoms: _366  and  _369
REMARK  153  A    between atoms: _369  and  _370
REMARK  154  A    between atoms: _373  and  _375
REMARK  155  A    between atoms: _375  and  _376
REMARK  156  A    between atoms: _375  and  _378
REMARK  157  A    between atoms: _381  and  _383
REMARK  158  A    between atoms: _383  and  _384
REMARK  159  A    between atoms: _383  and  _386
REMARK  160  A    between atoms: _386  and  _387
REMARK  161  A    between atoms: _390  and  _392
REMARK  162  A    between atoms: _392  and  _393
REMARK  163  A    between atoms: _392  and  _395
REMARK  164  A    between atoms: _395  and  _396
REMARK  165  A    between atoms: _396  and  _397
REMARK  166  A    between atoms: _397  and  _398
REMARK  167  A    between atoms: _398  and  _399
REMARK  168  A    between atoms: _403  and  _405
REMARK  169  A    between atoms: _405  and  _406
REMARK  170  A    between atoms: _405  and  _408
REMARK  171  A    between atoms: _408  and  _409
REMARK  172  A    between atoms: _409  and  _410
REMARK  173  A    between atoms: _412  and  _414
REMARK  174  A    between atoms: _414  and  _415
REMARK  175  A    between atoms: _414  and  _417
REMARK  176  A    between atoms: _417  and  _418
REMARK  177  A    between atoms: _421  and  _423
REMARK  178  A    between atoms: _423  and  _424
REMARK  179  A    between atoms: _426  and  _428
REMARK  180  A    between atoms: _428  and  _429
REMARK  181  A    between atoms: _431  and  _433
REMARK  182  A    between atoms: _433  and  _434
REMARK  183  A    between atoms: _433  and  _436
REMARK  184  A    between atoms: _436  and  _437
REMARK  185  A    between atoms: _440  and  _442
REMARK  186  A    between atoms: _442  and  _443
REMARK  187  A    between atoms: _445  and  _447
REMARK  188  A    between atoms: _447  and  _448
REMARK  189  A    between atoms: _450  and  _452
REMARK  190  A    between atoms: _452  and  _453
REMARK  191  A    between atoms: _452  and  _455
REMARK  192  A    between atoms: _455  and  _456
REMARK  193  A    between atoms: _462  and  _464
REMARK  194  A    between atoms: _464  and  _465
REMARK  195  A    between atoms: _464  and  _467
REMARK  196  A    between atoms: _467  and  _468
REMARK  197  A    between atoms: _471  and  _473
REMARK  198  A    between atoms: _473  and  _474
REMARK  199  A    between atoms: _473  and  _476
REMARK  200  A    between atoms: _479  and  _481
REMARK  201  A    between atoms: _481  and  _482
REMARK  202  A    between atoms: _481  and  _484
REMARK  203  A    between atoms: _484  and  _485
REMARK  204  A    between atoms: _488  and  _490
REMARK  205  A    between atoms: _490  and  _491
REMARK  206  A    between atoms: _490  and  _493
REMARK  207  A    between atoms: _493  and  _494
REMARK  208  A    between atoms: _498  and  _499
REMARK  209  A    between atoms: _504  and  _506
REMARK  210  A    between atoms: _506  and  _507
REMARK  211  A    between atoms: _506  and  _509
REMARK  212  A    between atoms: _512  and  _514
REMARK  213  A    between atoms: _514  and  _515
REMARK  214  A    between atoms: _514  and  _517
REMARK  215  A    between atoms: _517  and  _518
REMARK  216  A    between atoms: _523  and  _525
REMARK  217  A    between atoms: _525  and  _526
REMARK  218  A    between atoms: _525  and  _528
REMARK  219  A    between atoms: _528  and  _529
REMARK  220  A    between atoms: _532  and  _534
REMARK  221  A    between atoms: _534  and  _535
REMARK  222  A    between atoms: _534  and  _537
REMARK  223  A    between atoms: _537  and  _538
REMARK  224  A    between atoms: _541  and  _543
REMARK  225  A    between atoms: _543  and  _544
REMARK  226  A    between atoms: _546  and  _548
REMARK  227  A    between atoms: _548  and  _549
REMARK  228  A    between atoms: _548  and  _551
REMARK  229  A    between atoms: _551  and  _552
REMARK  230  A    between atoms: _552  and  _553
REMARK  231  A    between atoms: _553  and  _554
REMARK  232  A    between atoms: _563  and  _565
REMARK  233  A    between atoms: _565  and  _566
REMARK  234  A    between atoms: _565  and  _568
REMARK  235  A    between atoms: _568  and  _569
REMARK                            x       y       z     vdW  Elec       q    Type
REMARK                         _______ _______ _______ _____ _____    ______ ____
ROOT
ATOM      1  O   HOH     1      14.296  10.985   6.396  0.00  0.00    +0.000 OA
ENDROOT
TORSDOF 0
REMARK  Name = ../refined-set-2016/1sdt/1sdt_pocket.pdb
REMARK  235 active torsions:
REMARK  status: ('A' for Active; 'I' for Inactive)
REMARK    1  A    between atoms: _1  and  _3
REMARK    2  A    between atoms: _3  and  _4
REMARK    3  A    between atoms: _3  and  _6
REMARK    4  A    between atoms: _6  and  _7
REMARK    5  A    between atoms: _7  and  _8
REMARK    6  A    between atoms: _8  and  _9
REMARK    7  A    between atoms: _18  and  _20
REMARK    8  A    between atoms: _20  and  _21
REMARK    9  A    between atoms: _20  and  _23
REMARK   10  A    between atoms: _23  and  _24
REMARK   11  A    between atoms: _27  and  _29
REMARK   12  A    between atoms: _29  and  _30
REMARK   13  A    between atoms: _29  and  _32
REMARK   14  A    between atoms: _32  and  _33
REMARK   15  A    between atoms: _36  and  _38
REMARK   16  A    between atoms: _38  and  _39
REMARK   17  A    between atoms: _38  and  _41
REMARK   18  A    between atoms: _41  and  _42
REMARK   19  A    between atoms: _45  and  _47
REMARK   20  A    between atoms: _47  and  _48
REMARK   21  A    between atoms: _47  and  _50
REMARK   22  A    between atoms: _50  and  _51
REMARK   23  A    between atoms: _54  and  _56
REMARK   24  A    between atoms: _56  and  _57
REMARK   25  A    between atoms: _56  and  _59
REMARK   26  A    between atoms: _59  and  _60
REMARK   27  A    between atoms: _63  and  _65
REMARK   28  A    between atoms: _65  and  _66
REMARK   29  A    between atoms: _68  and  _70
REMARK   30  A    between atoms: _70  and  _71
REMARK   31  A    between atoms: _74  and  _76
REMARK   32  A    between atoms: _76  and  _77
REMARK   33  A    between atoms: _76  and  _79
REMARK   34  A    between atoms: _79  and  _80
REMARK   35  A    between atoms: _83  and  _85
REMARK   36  A    between atoms: _85  and  _86
REMARK   37  A    between atoms: _85  and  _88
REMARK   38  A    between atoms: _88  and  _89
REMARK   39  A    between atoms: _92  and  _94
REMARK   40  A    between atoms: _94  and  _95
REMARK   41  A    between atoms: _94  and  _97
REMARK   42  A    between atoms: _97  and  _98
REMARK   43  A    between atoms: _101  and  _103
REMARK   44  A    between atoms: _103  and  _104
REMARK   45  A    between atoms: _103  and  _106
REMARK   46  A    between atoms: _109  and  _111
REMARK   47  A    between atoms: _111  and  _112
REMARK   48  A    between atoms: _111  and  _114
REMARK   49  A    between atoms: _114  and  _115
REMARK   50  A    between atoms: _115  and  _116
REMARK   51  A    between atoms: _116  and  _117
REMARK   52  A    between atoms: _117  and  _118
REMARK   53  A    between atoms: _122  and  _124
REMARK   54  A    between atoms: _124  and  _125
REMARK   55  A    between atoms: _124  and  _127
REMARK   56  A    between atoms: _127  and  _128
REMARK   57  A    between atoms: _128  and  _129
REMARK   58  A    between atoms: _131  and  _133
REMARK   59  A    between atoms: _133  and  _134
REMARK   60  A    between atoms: _133  and  _136
REMARK   61  A    between atoms: _136  and  _137
REMARK   62  A    between atoms: _140  and  _142
REMARK   63  A    between atoms: _142  and  _143
REMARK   64  A    between atoms: _145  and  _147
REMARK   65  A    between atoms: _147  and  _148
REMARK   66  A    between atoms: _150  and  _152
REMARK   67  A    between atoms: _152  and  _153
REMARK   68  A    between atoms: _152  and  _155
REMARK   69  A    between atoms: _155  and  _156
REMARK   70  A    between atoms: _159  and  _161
REMARK   71  A    between atoms: _161  and  _162
REMARK   72  A    between atoms: _164  and  _166
REMARK   73  A    between atoms: _166  and  _167
REMARK   74  A    between atoms: _169  and  _171
REMARK   75  A    between atoms: _171  and  _172
REMARK   76  A    between atoms: _171  and  _174
REMARK   77  A    between atoms: _174  and  _175
REMARK   78  A    between atoms: _181  and  _183
REMARK   79  A    between atoms: _183  and  _184
REMARK   80  A    between atoms: _183  and  _186
REMARK   81  A    between atoms: _186  and  _187
REMARK   82  A    between atoms: _190  and  _192
REMARK   83  A    between atoms: _192  and  _193
REMARK   84  A    between atoms: _192  and  _195
REMARK   85  A    between atoms: _198  and  _200
REMARK   86  A    between atoms: _200  and  _201
REMARK   87  A    between atoms: _200  and  _203
REMARK   88  A    between atoms: _203  and  _204
REMARK   89  A    between atoms: _207  and  _209
REMARK   90  A    between atoms: _209  and  _210
REMARK   91  A    between atoms: _209  and  _212
REMARK   92  A    between atoms: _212  and  _213
REMARK   93  A    between atoms: _217  and  _218
REMARK   94  A    between atoms: _223  and  _225
REMARK   95  A    between atoms: _225  and  _226
REMARK   96  A    between atoms: _225  and  _228
REMARK   97  A    between atoms: _231  and  _233
REMARK   98  A    between atoms: _233  and  _234
REMARK   99  A    between atoms: _233  and  _236
REMARK  100  A    between atoms: _236  and  _237
REMARK  101  A    between atoms: _242  and  _244
REMARK  102  A    between atoms: _244  and  _245
REMARK  103  A    between atoms: _244  and  _247
REMARK  104  A    between atoms: _247  and  _248
REMARK  105  A    between atoms: _251  and  _253
REMARK  106  A    between atoms: _253  and  _254
REMARK  107  A    between atoms: _253  and  _256
REMARK  108  A    between atoms: _256  and  _257
REMARK  109  A    between atoms: _260  and  _262
REMARK  110  A    between atoms: _262  and  _263
REMARK  111  A    between atoms: _265  and  _267
REMARK  112  A    between atoms: _267  and  _268
REMARK  113  A    between atoms: _267  and  _270
REMARK  114  A    between atoms: _270  and  _271
REMARK  115  A    between atoms: _271  and  _272
REMARK  116  A    between atoms: _272  and  _273
REMARK  117  A    between atoms: _282  and  _284
REMARK  118  A    between atoms: _284  and  _285
REMARK  119  A    between atoms: _284  and  _287
REMARK  120  A    between atoms: _288  and  _289
REMARK  121  A    between atoms: _289  and  _290
REMARK  122  A    between atoms: _299  and  _301
REMARK  123  A    between atoms: _301  and  _302
REMARK  124  A    between atoms: _301  and  _304
REMARK  125  A    between atoms: _304  and  _305
REMARK  126  A    between atoms: _308  and  _310
REMARK  127  A    between atoms: _310  and  _311
REMARK  128  A    between atoms: _310  and  _313
REMARK  129  A    between atoms: _313  and  _314
REMARK  130  A    between atoms: _317  and  _319
REMARK  131  A    between atoms: _319  and  _320
REMARK  132  A    between atoms: _319  and  _322
REMARK  133  A    between atoms: _322  and  _323
REMARK  134  A    between atoms: _326  and  _328
REMARK  135  A    between atoms: _328  and  _329
REMARK  136  A    between atoms: _328  and  _331
REMARK  137  A    between atoms: _331  and  _332
REMARK  138  A    between atoms: _335  and  _337
REMARK  139  A    between atoms: _337  and  _338
REMARK  140  A    between atoms: _340  and  _342
REMARK  141  A    between atoms: _342  and  _343
REMARK  142  A    between atoms: _346  and  _348
REMARK  143  A    between atoms: _348  and  _349
REMARK  144  A    between atoms: _348  and  _351
REMARK  145  A    between atoms: _351  and  _352
REMARK  146  A    between atoms: _355  and  _357
REMARK  147  A    between atoms: _357  and  _358
REMARK  148  A    between atoms: _357  and  _360
REMARK  149  A    between atoms: _360  and  _361
REMARK  150  A    between atoms: _364  and  _366
REMARK  151  A    between atoms: _366  and  _367
REMARK  152  A    between atoms: _366  and  _369
REMARK  153  A    between atoms: _369  and  _370
REMARK  154  A    between atoms: _373  and  _375
REMARK  155  A    between atoms: _375  and  _376
REMARK  156  A    between atoms: _375  and  _378
REMARK  157  A    between atoms: _381  and  _383
REMARK  158  A    between atoms: _383  and  _384
REMARK  159  A    between atoms: _383  and  _386
REMARK  160  A    between atoms: _386  and  _387
REMARK  161  A    between atoms: _390  and  _392
REMARK  162  A    between atoms: _392  and  _393
REMARK  163  A    between atoms: _392  and  _395
REMARK  164  A    between atoms: _395  and  _396
REMARK  165  A    between atoms: _396  and  _397
REMARK  166  A    between atoms: _397  and  _398
REMARK  167  A    between atoms: _398  and  _399
REMARK  168  A    between atoms: _403  and  _405
REMARK  169  A    between atoms: _405  and  _406
REMARK  170  A    between atoms: _405  and  _408
REMARK  171  A    between atoms: _408  and  _409
REMARK  172  A    between atoms: _409  and  _410
REMARK  173  A    between atoms: _412  and  _414
REMARK  174  A    between atoms: _414  and  _415
REMARK  175  A    between atoms: _414  and  _417
REMARK  176  A    between atoms: _417  and  _418
REMARK  177  A    between atoms: _421  and  _423
REMARK  178  A    between atoms: _423  and  _424
REMARK  179  A    between atoms: _426  and  _428
REMARK  180  A    between atoms: _428  and  _429
REMARK  181  A    between atoms: _431  and  _433
REMARK  182  A    between atoms: _433  and  _434
REMARK  183  A    between atoms: _433  and  _436
REMARK  184  A    between atoms: _436  and  _437
REMARK  185  A    between atoms: _440  and  _442
REMARK  186  A    between atoms: _442  and  _443
REMARK  187  A    between atoms: _445  and  _447
REMARK  188  A    between atoms: _447  and  _448
REMARK  189  A    between atoms: _450  and  _452
REMARK  190  A    between atoms: _452  and  _453
REMARK  191  A    between atoms: _452  and  _455
REMARK  192  A    between atoms: _455  and  _456
REMARK  193  A    between atoms: _462  and  _464
REMARK  194  A    between atoms: _464  and  _465
REMARK  195  A    between atoms: _464  and  _467
REMARK  196  A    between atoms: _467  and  _468
REMARK  197  A    between atoms: _471  and  _473
REMARK  198  A    between atoms: _473  and  _474
REMARK  199  A    between atoms: _473  and  _476
REMARK  200  A    between atoms: _479  and  _481
REMARK  201  A    between atoms: _481  and  _482
REMARK  202  A    between atoms: _481  and  _484
REMARK  203  A    between atoms: _484  and  _485
REMARK  204  A    between atoms: _488  and  _490
REMARK  205  A    between atoms: _490  and  _491
REMARK  206  A    between atoms: _490  and  _493
REMARK  207  A    between atoms: _493  and  _494
REMARK  208  A    between atoms: _498  and  _499
REMARK  209  A    between atoms: _504  and  _506
REMARK  210  A    between atoms: _506  and  _507
REMARK  211  A    between atoms: _506  and  _509
REMARK  212  A    between atoms: _512  and  _514
REMARK  213  A    between atoms: _514  and  _515
REMARK  214  A    between atoms: _514  and  _517
REMARK  215  A    between atoms: _517  and  _518
REMARK  216  A    between atoms: _523  and  _525
REMARK  217  A    between atoms: _525  and  _526
REMARK  218  A    between atoms: _525  and  _528
REMARK  219  A    between atoms: _528  and  _529
REMARK  220  A    between atoms: _532  and  _534
REMARK  221  A    between atoms: _534  and  _535
REMARK  222  A    between atoms: _534  and  _537
REMARK  223  A    between atoms: _537  and  _538
REMARK  224  A    between atoms: _541  and  _543
REMARK  225  A    between atoms: _543  and  _544
REMARK  226  A    between atoms: _546  and  _548
REMARK  227  A    between atoms: _548  and  _549
REMARK  228  A    between atoms: _548  and  _551
REMARK  229  A    between atoms: _551  and  _552
REMARK  230  A    between atoms: _552  and  _553
REMARK  231  A    between atoms: _553  and  _554
REMARK  232  A    between atoms: _563  and  _565
REMARK  233  A    between atoms: _565  and  _566
REMARK  234  A    between atoms: _565  and  _568
REMARK  235  A    between atoms: _568  and  _569
REMARK                            x       y       z     vdW  Elec       q    Type
REMARK                         _______ _______ _______ _____ _____    ______ ____
ROOT
ATOM      1  O   HOH     1      26.280  20.910   2.385  0.00  0.00    +0.000 OA
ENDROOT
TORSDOF 0
REMARK  Name = ../refined-set-2016/1sdt/1sdt_pocket.pdb
REMARK  235 active torsions:
REMARK  status: ('A' for Active; 'I' for Inactive)
REMARK    1  A    between atoms: _1  and  _3
REMARK    2  A    between atoms: _3  and  _4
REMARK    3  A    between atoms: _3  and  _6
REMARK    4  A    between atoms: _6  and  _7
REMARK    5  A    between atoms: _7  and  _8
REMARK    6  A    between atoms: _8  and  _9
REMARK    7  A    between atoms: _18  and  _20
REMARK    8  A    between atoms: _20  and  _21
REMARK    9  A    between atoms: _20  and  _23
REMARK   10  A    between atoms: _23  and  _24
REMARK   11  A    between atoms: _27  and  _29
REMARK   12  A    between atoms: _29  and  _30
REMARK   13  A    between atoms: _29  and  _32
REMARK   14  A    between atoms: _32  and  _33
REMARK   15  A    between atoms: _36  and  _38
REMARK   16  A    between atoms: _38  and  _39
REMARK   17  A    between atoms: _38  and  _41
REMARK   18  A    between atoms: _41  and  _42
REMARK   19  A    between atoms: _45  and  _47
REMARK   20  A    between atoms: _47  and  _48
REMARK   21  A    between atoms: _47  and  _50
REMARK   22  A    between atoms: _50  and  _51
REMARK   23  A    between atoms: _54  and  _56
REMARK   24  A    between atoms: _56  and  _57
REMARK   25  A    between atoms: _56  and  _59
REMARK   26  A    between atoms: _59  and  _60
REMARK   27  A    between atoms: _63  and  _65
REMARK   28  A    between atoms: _65  and  _66
REMARK   29  A    between atoms: _68  and  _70
REMARK   30  A    between atoms: _70  and  _71
REMARK   31  A    between atoms: _74  and  _76
REMARK   32  A    between atoms: _76  and  _77
REMARK   33  A    between atoms: _76  and  _79
REMARK   34  A    between atoms: _79  and  _80
REMARK   35  A    between atoms: _83  and  _85
REMARK   36  A    between atoms: _85  and  _86
REMARK   37  A    between atoms: _85  and  _88
REMARK   38  A    between atoms: _88  and  _89
REMARK   39  A    between atoms: _92  and  _94
REMARK   40  A    between atoms: _94  and  _95
REMARK   41  A    between atoms: _94  and  _97
REMARK   42  A    between atoms: _97  and  _98
REMARK   43  A    between atoms: _101  and  _103
REMARK   44  A    between atoms: _103  and  _104
REMARK   45  A    between atoms: _103  and  _106
REMARK   46  A    between atoms: _109  and  _111
REMARK   47  A    between atoms: _111  and  _112
REMARK   48  A    between atoms: _111  and  _114
REMARK   49  A    between atoms: _114  and  _115
REMARK   50  A    between atoms: _115  and  _116
REMARK   51  A    between atoms: _116  and  _117
REMARK   52  A    between atoms: _117  and  _118
REMARK   53  A    between atoms: _122  and  _124
REMARK   54  A    between atoms: _124  and  _125
REMARK   55  A    between atoms: _124  and  _127
REMARK   56  A    between atoms: _127  and  _128
REMARK   57  A    between atoms: _128  and  _129
REMARK   58  A    between atoms: _131  and  _133
REMARK   59  A    between atoms: _133  and  _134
REMARK   60  A    between atoms: _133  and  _136
REMARK   61  A    between atoms: _136  and  _137
REMARK   62  A    between atoms: _140  and  _142
REMARK   63  A    between atoms: _142  and  _143
REMARK   64  A    between atoms: _145  and  _147
REMARK   65  A    between atoms: _147  and  _148
REMARK   66  A    between atoms: _150  and  _152
REMARK   67  A    between atoms: _152  and  _153
REMARK   68  A    between atoms: _152  and  _155
REMARK   69  A    between atoms: _155  and  _156
REMARK   70  A    between atoms: _159  and  _161
REMARK   71  A    between atoms: _161  and  _162
REMARK   72  A    between atoms: _164  and  _166
REMARK   73  A    between atoms: _166  and  _167
REMARK   74  A    between atoms: _169  and  _171
REMARK   75  A    between atoms: _171  and  _172
REMARK   76  A    between atoms: _171  and  _174
REMARK   77  A    between atoms: _174  and  _175
REMARK   78  A    between atoms: _181  and  _183
REMARK   79  A    between atoms: _183  and  _184
REMARK   80  A    between atoms: _183  and  _186
REMARK   81  A    between atoms: _186  and  _187
REMARK   82  A    between atoms: _190  and  _192
REMARK   83  A    between atoms: _192  and  _193
REMARK   84  A    between atoms: _192  and  _195
REMARK   85  A    between atoms: _198  and  _200
REMARK   86  A    between atoms: _200  and  _201
REMARK   87  A    between atoms: _200  and  _203
REMARK   88  A    between atoms: _203  and  _204
REMARK   89  A    between atoms: _207  and  _209
REMARK   90  A    between atoms: _209  and  _210
REMARK   91  A    between atoms: _209  and  _212
REMARK   92  A    between atoms: _212  and  _213
REMARK   93  A    between atoms: _217  and  _218
REMARK   94  A    between atoms: _223  and  _225
REMARK   95  A    between atoms: _225  and  _226
REMARK   96  A    between atoms: _225  and  _228
REMARK   97  A    between atoms: _231  and  _233
REMARK   98  A    between atoms: _233  and  _234
REMARK   99  A    between atoms: _233  and  _236
REMARK  100  A    between atoms: _236  and  _237
REMARK  101  A    between atoms: _242  and  _244
REMARK  102  A    between atoms: _244  and  _245
REMARK  103  A    between atoms: _244  and  _247
REMARK  104  A    between atoms: _247  and  _248
REMARK  105  A    between atoms: _251  and  _253
REMARK  106  A    between atoms: _253  and  _254
REMARK  107  A    between atoms: _253  and  _256
REMARK  108  A    between atoms: _256  and  _257
REMARK  109  A    between atoms: _260  and  _262
REMARK  110  A    between atoms: _262  and  _263
REMARK  111  A    between atoms: _265  and  _267
REMARK  112  A    between atoms: _267  and  _268
REMARK  113  A    between atoms: _267  and  _270
REMARK  114  A    between atoms: _270  and  _271
REMARK  115  A    between atoms: _271  and  _272
REMARK  116  A    between atoms: _272  and  _273
REMARK  117  A    between atoms: _282  and  _284
REMARK  118  A    between atoms: _284  and  _285
REMARK  119  A    between atoms: _284  and  _287
REMARK  120  A    between atoms: _288  and  _289
REMARK  121  A    between atoms: _289  and  _290
REMARK  122  A    between atoms: _299  and  _301
REMARK  123  A    between atoms: _301  and  _302
REMARK  124  A    between atoms: _301  and  _304
REMARK  125  A    between atoms: _304  and  _305
REMARK  126  A    between atoms: _308  and  _310
REMARK  127  A    between atoms: _310  and  _311
REMARK  128  A    between atoms: _310  and  _313
REMARK  129  A    between atoms: _313  and  _314
REMARK  130  A    between atoms: _317  and  _319
REMARK  131  A    between atoms: _319  and  _320
REMARK  132  A    between atoms: _319  and  _322
REMARK  133  A    between atoms: _322  and  _323
REMARK  134  A    between atoms: _326  and  _328
REMARK  135  A    between atoms: _328  and  _329
REMARK  136  A    between atoms: _328  and  _331
REMARK  137  A    between atoms: _331  and  _332
REMARK  138  A    between atoms: _335  and  _337
REMARK  139  A    between atoms: _337  and  _338
REMARK  140  A    between atoms: _340  and  _342
REMARK  141  A    between atoms: _342  and  _343
REMARK  142  A    between atoms: _346  and  _348
REMARK  143  A    between atoms: _348  and  _349
REMARK  144  A    between atoms: _348  and  _351
REMARK  145  A    between atoms: _351  and  _352
REMARK  146  A    between atoms: _355  and  _357
REMARK  147  A    between atoms: _357  and  _358
REMARK  148  A    between atoms: _357  and  _360
REMARK  149  A    between atoms: _360  and  _361
REMARK  150  A    between atoms: _364  and  _366
REMARK  151  A    between atoms: _366  and  _367
REMARK  152  A    between atoms: _366  and  _369
REMARK  153  A    between atoms: _369  and  _370
REMARK  154  A    between atoms: _373  and  _375
REMARK  155  A    between atoms: _375  and  _376
REMARK  156  A    between atoms: _375  and  _378
REMARK  157  A    between atoms: _381  and  _383
REMARK  158  A    between atoms: _383  and  _384
REMARK  159  A    between atoms: _383  and  _386
REMARK  160  A    between atoms: _386  and  _387
REMARK  161  A    between atoms: _390  and  _392
REMARK  162  A    between atoms: _392  and  _393
REMARK  163  A    between atoms: _392  and  _395
REMARK  164  A    between atoms: _395  and  _396
REMARK  165  A    between atoms: _396  and  _397
REMARK  166  A    between atoms: _397  and  _398
REMARK  167  A    between atoms: _398  and  _399
REMARK  168  A    between atoms: _403  and  _405
REMARK  169  A    between atoms: _405  and  _406
REMARK  170  A    between atoms: _405  and  _408
REMARK  171  A    between atoms: _408  and  _409
REMARK  172  A    between atoms: _409  and  _410
REMARK  173  A    between atoms: _412  and  _414
REMARK  174  A    between atoms: _414  and  _415
REMARK  175  A    between atoms: _414  and  _417
REMARK  176  A    between atoms: _417  and  _418
REMARK  177  A    between atoms: _421  and  _423
REMARK  178  A    between atoms: _423  and  _424
REMARK  179  A    between atoms: _426  and  _428
REMARK  180  A    between atoms: _428  and  _429
REMARK  181  A    between atoms: _431  and  _433
REMARK  182  A    between atoms: _433  and  _434
REMARK  183  A    between atoms: _433  and  _436
REMARK  184  A    between atoms: _436  and  _437
REMARK  185  A    between atoms: _440  and  _442
REMARK  186  A    between atoms: _442  and  _443
REMARK  187  A    between atoms: _445  and  _447
REMARK  188  A    between atoms: _447  and  _448
REMARK  189  A    between atoms: _450  and  _452
REMARK  190  A    between atoms: _452  and  _453
REMARK  191  A    between atoms: _452  and  _455
REMARK  192  A    between atoms: _455  and  _456
REMARK  193  A    between atoms: _462  and  _464
REMARK  194  A    between atoms: _464  and  _465
REMARK  195  A    between atoms: _464  and  _467
REMARK  196  A    between atoms: _467  and  _468
REMARK  197  A    between atoms: _471  and  _473
REMARK  198  A    between atoms: _473  and  _474
REMARK  199  A    between atoms: _473  and  _476
REMARK  200  A    between atoms: _479  and  _481
REMARK  201  A    between atoms: _481  and  _482
REMARK  202  A    between atoms: _481  and  _484
REMARK  203  A    between atoms: _484  and  _485
REMARK  204  A    between atoms: _488  and  _490
REMARK  205  A    between atoms: _490  and  _491
REMARK  206  A    between atoms: _490  and  _493
REMARK  207  A    between atoms: _493  and  _494
REMARK  208  A    between atoms: _498  and  _499
REMARK  209  A    between atoms: _504  and  _506
REMARK  210  A    between atoms: _506  and  _507
REMARK  211  A    between atoms: _506  and  _509
REMARK  212  A    between atoms: _512  and  _514
REMARK  213  A    between atoms: _514  and  _515
REMARK  214  A    between atoms: _514  and  _517
REMARK  215  A    between atoms: _517  and  _518
REMARK  216  A    between atoms: _523  and  _525
REMARK  217  A    between atoms: _525  and  _526
REMARK  218  A    between atoms: _525  and  _528
REMARK  219  A    between atoms: _528  and  _529
REMARK  220  A    between atoms: _532  and  _534
REMARK  221  A    between atoms: _534  and  _535
REMARK  222  A    between atoms: _534  and  _537
REMARK  223  A    between atoms: _537  and  _538
REMARK  224  A    between atoms: _541  and  _543
REMARK  225  A    between atoms: _543  and  _544
REMARK  226  A    between atoms: _546  and  _548
REMARK  227  A    between atoms: _548  and  _549
REMARK  228  A    between atoms: _548  and  _551
REMARK  229  A    between atoms: _551  and  _552
REMARK  230  A    between atoms: _552  and  _553
REMARK  231  A    between atoms: _553  and  _554
REMARK  232  A    between atoms: _563  and  _565
REMARK  233  A    between atoms: _565  and  _566
REMARK  234  A    between atoms: _565  and  _568
REMARK  235  A    between atoms: _568  and  _569
REMARK                            x       y       z     vdW  Elec       q    Type
REMARK                         _______ _______ _______ _____ _____    ______ ____
ROOT
ATOM      1  O   HOH     1      18.171  18.826  13.884  0.00  0.00    +0.000 OA
ENDROOT
TORSDOF 0
