REMARK  Name = ../refined-set-2016/1d4y/1d4y_pocket.pdb
REMARK  217 active torsions:
REMARK  status: ('A' for Active; 'I' for Inactive)
REMARK    1  A    between atoms: _1  and  _3
REMARK    2  A    between atoms: _3  and  _4
REMARK    3  A    between atoms: _3  and  _6
REMARK    4  A    between atoms: _6  and  _7
REMARK    5  A    between atoms: _7  and  _8
REMARK    6  A    between atoms: _8  and  _9
REMARK    7  A    between atoms: _18  and  _20
REMARK    8  A    between atoms: _20  and  _21
REMARK    9  A    between atoms: _20  and  _23
REMARK   10  A    between atoms: _23  and  _24
REMARK   11  A    between atoms: _27  and  _29
REMARK   12  A    between atoms: _29  and  _30
REMARK   13  A    between atoms: _29  and  _32
REMARK   14  A    between atoms: _32  and  _33
REMARK   15  A    between atoms: _36  and  _38
REMARK   16  A    between atoms: _38  and  _39
REMARK   17  A    between atoms: _38  and  _41
REMARK   18  A    between atoms: _41  and  _42
REMARK   19  A    between atoms: _45  and  _47
REMARK   20  A    between atoms: _47  and  _48
REMARK   21  A    between atoms: _47  and  _50
REMARK   22  A    between atoms: _50  and  _51
REMARK   23  A    between atoms: _54  and  _56
REMARK   24  A    between atoms: _56  and  _57
REMARK   25  A    between atoms: _56  and  _59
REMARK   26  A    between atoms: _59  and  _60
REMARK   27  A    between atoms: _63  and  _65
REMARK   28  A    between atoms: _65  and  _66
REMARK   29  A    between atoms: _68  and  _70
REMARK   30  A    between atoms: _70  and  _71
REMARK   31  A    between atoms: _74  and  _76
REMARK   32  A    between atoms: _76  and  _77
REMARK   33  A    between atoms: _76  and  _79
REMARK   34  A    between atoms: _79  and  _80
REMARK   35  A    between atoms: _83  and  _85
REMARK   36  A    between atoms: _85  and  _86
REMARK   37  A    between atoms: _85  and  _88
REMARK   38  A    between atoms: _88  and  _89
REMARK   39  A    between atoms: _92  and  _94
REMARK   40  A    between atoms: _94  and  _95
REMARK   41  A    between atoms: _94  and  _97
REMARK   42  A    between atoms: _97  and  _98
REMARK   43  A    between atoms: _101  and  _103
REMARK   44  A    between atoms: _103  and  _104
REMARK   45  A    between atoms: _103  and  _106
REMARK   46  A    between atoms: _109  and  _111
REMARK   47  A    between atoms: _111  and  _112
REMARK   48  A    between atoms: _111  and  _114
REMARK   49  A    between atoms: _114  and  _115
REMARK   50  A    between atoms: _115  and  _116
REMARK   51  A    between atoms: _116  and  _117
REMARK   52  A    between atoms: _117  and  _118
REMARK   53  A    between atoms: _122  and  _124
REMARK   54  A    between atoms: _124  and  _125
REMARK   55  A    between atoms: _124  and  _127
REMARK   56  A    between atoms: _127  and  _128
REMARK   57  A    between atoms: _128  and  _129
REMARK   58  A    between atoms: _131  and  _133
REMARK   59  A    between atoms: _133  and  _134
REMARK   60  A    between atoms: _133  and  _136
REMARK   61  A    between atoms: _136  and  _137
REMARK   62  A    between atoms: _140  and  _142
REMARK   63  A    between atoms: _142  and  _143
REMARK   64  A    between atoms: _145  and  _147
REMARK   65  A    between atoms: _147  and  _148
REMARK   66  A    between atoms: _150  and  _152
REMARK   67  A    between atoms: _152  and  _153
REMARK   68  A    between atoms: _152  and  _155
REMARK   69  A    between atoms: _155  and  _156
REMARK   70  A    between atoms: _159  and  _161
REMARK   71  A    between atoms: _161  and  _162
REMARK   72  A    between atoms: _164  and  _166
REMARK   73  A    between atoms: _166  and  _167
REMARK   74  A    between atoms: _169  and  _171
REMARK   75  A    between atoms: _171  and  _172
REMARK   76  A    between atoms: _171  and  _174
REMARK   77  A    between atoms: _174  and  _175
REMARK   78  A    between atoms: _181  and  _183
REMARK   79  A    between atoms: _183  and  _184
REMARK   80  A    between atoms: _183  and  _186
REMARK   81  A    between atoms: _186  and  _187
REMARK   82  A    between atoms: _190  and  _192
REMARK   83  A    between atoms: _192  and  _193
REMARK   84  A    between atoms: _192  and  _195
REMARK   85  A    between atoms: _198  and  _200
REMARK   86  A    between atoms: _200  and  _201
REMARK   87  A    between atoms: _200  and  _203
REMARK   88  A    between atoms: _203  and  _204
REMARK   89  A    between atoms: _207  and  _209
REMARK   90  A    between atoms: _209  and  _210
REMARK   91  A    between atoms: _209  and  _212
REMARK   92  A    between atoms: _212  and  _213
REMARK   93  A    between atoms: _217  and  _218
REMARK   94  A    between atoms: _223  and  _225
REMARK   95  A    between atoms: _225  and  _226
REMARK   96  A    between atoms: _225  and  _228
REMARK   97  A    between atoms: _231  and  _233
REMARK   98  A    between atoms: _233  and  _234
REMARK   99  A    between atoms: _233  and  _236
REMARK  100  A    between atoms: _236  and  _237
REMARK  101  A    between atoms: _242  and  _244
REMARK  102  A    between atoms: _244  and  _245
REMARK  103  A    between atoms: _244  and  _247
REMARK  104  A    between atoms: _247  and  _248
REMARK  105  A    between atoms: _251  and  _253
REMARK  106  A    between atoms: _253  and  _254
REMARK  107  A    between atoms: _253  and  _256
REMARK  108  A    between atoms: _256  and  _257
REMARK  109  A    between atoms: _260  and  _262
REMARK  110  A    between atoms: _262  and  _263
REMARK  111  A    between atoms: _265  and  _267
REMARK  112  A    between atoms: _267  and  _268
REMARK  113  A    between atoms: _267  and  _270
REMARK  114  A    between atoms: _270  and  _271
REMARK  115  A    between atoms: _271  and  _272
REMARK  116  A    between atoms: _272  and  _273
REMARK  117  A    between atoms: _282  and  _284
REMARK  118  A    between atoms: _284  and  _285
REMARK  119  A    between atoms: _284  and  _287
REMARK  120  A    between atoms: _287  and  _288
REMARK  121  A    between atoms: _293  and  _295
REMARK  122  A    between atoms: _295  and  _296
REMARK  123  A    between atoms: _295  and  _298
REMARK  124  A    between atoms: _298  and  _299
REMARK  125  A    between atoms: _299  and  _300
REMARK  126  A    between atoms: _300  and  _301
REMARK  127  A    between atoms: _311  and  _312
REMARK  128  A    between atoms: _317  and  _319
REMARK  129  A    between atoms: _319  and  _320
REMARK  130  A    between atoms: _319  and  _322
REMARK  131  A    between atoms: _322  and  _323
REMARK  132  A    between atoms: _326  and  _328
REMARK  133  A    between atoms: _328  and  _329
REMARK  134  A    between atoms: _328  and  _331
REMARK  135  A    between atoms: _331  and  _332
REMARK  136  A    between atoms: _335  and  _337
REMARK  137  A    between atoms: _337  and  _338
REMARK  138  A    between atoms: _337  and  _340
REMARK  139  A    between atoms: _340  and  _341
REMARK  140  A    between atoms: _344  and  _346
REMARK  141  A    between atoms: _346  and  _347
REMARK  142  A    between atoms: _346  and  _349
REMARK  143  A    between atoms: _349  and  _350
REMARK  144  A    between atoms: _353  and  _355
REMARK  145  A    between atoms: _355  and  _356
REMARK  146  A    between atoms: _355  and  _358
REMARK  147  A    between atoms: _358  and  _359
REMARK  148  A    between atoms: _362  and  _364
REMARK  149  A    between atoms: _364  and  _365
REMARK  150  A    between atoms: _367  and  _369
REMARK  151  A    between atoms: _369  and  _370
REMARK  152  A    between atoms: _373  and  _375
REMARK  153  A    between atoms: _375  and  _376
REMARK  154  A    between atoms: _375  and  _378
REMARK  155  A    between atoms: _378  and  _379
REMARK  156  A    between atoms: _382  and  _384
REMARK  157  A    between atoms: _384  and  _385
REMARK  158  A    between atoms: _384  and  _387
REMARK  159  A    between atoms: _387  and  _388
REMARK  160  A    between atoms: _391  and  _393
REMARK  161  A    between atoms: _393  and  _394
REMARK  162  A    between atoms: _393  and  _396
REMARK  163  A    between atoms: _396  and  _397
REMARK  164  A    between atoms: _400  and  _402
REMARK  165  A    between atoms: _402  and  _403
REMARK  166  A    between atoms: _402  and  _405
REMARK  167  A    between atoms: _408  and  _410
REMARK  168  A    between atoms: _410  and  _411
REMARK  169  A    between atoms: _410  and  _413
REMARK  170  A    between atoms: _413  and  _414
REMARK  171  A    between atoms: _417  and  _419
REMARK  172  A    between atoms: _419  and  _420
REMARK  173  A    between atoms: _422  and  _424
REMARK  174  A    between atoms: _424  and  _425
REMARK  175  A    between atoms: _429  and  _430
REMARK  176  A    between atoms: _429  and  _432
REMARK  177  A    between atoms: _432  and  _433
REMARK  178  A    between atoms: _436  and  _438
REMARK  179  A    between atoms: _438  and  _439
REMARK  180  A    between atoms: _441  and  _443
REMARK  181  A    between atoms: _443  and  _444
REMARK  182  A    between atoms: _446  and  _448
REMARK  183  A    between atoms: _448  and  _449
REMARK  184  A    between atoms: _448  and  _451
REMARK  185  A    between atoms: _451  and  _452
REMARK  186  A    between atoms: _458  and  _460
REMARK  187  A    between atoms: _460  and  _461
REMARK  188  A    between atoms: _460  and  _463
REMARK  189  A    between atoms: _463  and  _464
REMARK  190  A    between atoms: _467  and  _469
REMARK  191  A    between atoms: _469  and  _470
REMARK  192  A    between atoms: _469  and  _472
REMARK  193  A    between atoms: _472  and  _473
REMARK  194  A    between atoms: _476  and  _478
REMARK  195  A    between atoms: _478  and  _479
REMARK  196  A    between atoms: _478  and  _481
REMARK  197  A    between atoms: _481  and  _482
REMARK  198  A    between atoms: _486  and  _487
REMARK  199  A    between atoms: _492  and  _494
REMARK  200  A    between atoms: _494  and  _495
REMARK  201  A    between atoms: _494  and  _497
REMARK  202  A    between atoms: _500  and  _502
REMARK  203  A    between atoms: _502  and  _503
REMARK  204  A    between atoms: _502  and  _505
REMARK  205  A    between atoms: _505  and  _506
REMARK  206  A    between atoms: _511  and  _513
REMARK  207  A    between atoms: _513  and  _514
REMARK  208  A    between atoms: _513  and  _516
REMARK  209  A    between atoms: _516  and  _517
REMARK  210  A    between atoms: _520  and  _522
REMARK  211  A    between atoms: _522  and  _523
REMARK  212  A    between atoms: _525  and  _527
REMARK  213  A    between atoms: _527  and  _528
REMARK  214  A    between atoms: _527  and  _530
REMARK  215  A    between atoms: _530  and  _531
REMARK  216  A    between atoms: _531  and  _532
REMARK  217  A    between atoms: _532  and  _533
REMARK                            x       y       z     vdW  Elec       q    Type
REMARK                         _______ _______ _______ _____ _____    ______ ____
ROOT
ATOM      1  NE  ARG A   1      23.396  20.472   7.764  0.00  0.00    -0.265 N 
ATOM      2  CZ  ARG A   1      22.919  19.543   8.593  0.00  0.00    +0.342 C 
ATOM      3  NH2 ARG A   1      23.139  19.647   9.897  0.00  0.00    -0.292 N 
ATOM      4 HH21 ARG A   1      22.768  18.924  10.546  0.00  0.00    +0.255 HD
ATOM      5 HH22 ARG A   1      23.682  20.452  10.270  0.00  0.00    +0.255 HD
ATOM      6  NH1 ARG A   1      22.245  18.504   8.129  0.00  0.00    -0.292 N 
ATOM      7 HH11 ARG A   1      21.878  17.786   8.786  0.00  0.00    +0.255 HD
ATOM      8 HH12 ARG A   1      22.082  18.405   7.107  0.00  0.00    +0.255 HD
ATOM      9  HE  ARG A   1      23.235  20.375   6.741  0.00  0.00    +0.259 HD
ENDROOT
BRANCH   1  10
ATOM     10  CD  ARG A   1      24.154  21.644   8.274  0.00  0.00    +0.174 C 
BRANCH  10  11
ATOM     11  CG  ARG A   1      24.731  22.470   7.147  0.00  0.00    +0.045 C 
BRANCH  11  12
ATOM     12  CB  ARG A   1      25.331  23.796   7.694  0.00  0.00    +0.029 C 
BRANCH  12  13
ATOM     13  CA  ARG A   1      25.873  24.641   6.516  0.00  0.00    +0.133 C 
BRANCH  13  14
ATOM     14  N   ARG A   1      27.129  23.985   6.066  0.00  0.00    -0.239 NA
ATOM     15  H   ARG A   1      27.465  23.118   6.531  0.00  0.00    +0.142 HD
ENDBRANCH  13  14
BRANCH  13  16
ATOM     16  C   ARG A   1      26.148  26.066   6.970  0.00  0.00    +0.224 C 
ATOM     17  O   ARG A   1      27.177  26.344   7.620  0.00  0.00    -0.287 OA
ENDBRANCH  13  16
ENDBRANCH  12  13
ENDBRANCH  11  12
ENDBRANCH  10  11
ENDBRANCH   1  10
TORSDOF 6
REMARK  Name = ../refined-set-2016/1d4y/1d4y_pocket.pdb
REMARK  217 active torsions:
REMARK  status: ('A' for Active; 'I' for Inactive)
REMARK    1  A    between atoms: _1  and  _3
REMARK    2  A    between atoms: _3  and  _4
REMARK    3  A    between atoms: _3  and  _6
REMARK    4  A    between atoms: _6  and  _7
REMARK    5  A    between atoms: _7  and  _8
REMARK    6  A    between atoms: _8  and  _9
REMARK    7  A    between atoms: _18  and  _20
REMARK    8  A    between atoms: _20  and  _21
REMARK    9  A    between atoms: _20  and  _23
REMARK   10  A    between atoms: _23  and  _24
REMARK   11  A    between atoms: _27  and  _29
REMARK   12  A    between atoms: _29  and  _30
REMARK   13  A    between atoms: _29  and  _32
REMARK   14  A    between atoms: _32  and  _33
REMARK   15  A    between atoms: _36  and  _38
REMARK   16  A    between atoms: _38  and  _39
REMARK   17  A    between atoms: _38  and  _41
REMARK   18  A    between atoms: _41  and  _42
REMARK   19  A    between atoms: _45  and  _47
REMARK   20  A    between atoms: _47  and  _48
REMARK   21  A    between atoms: _47  and  _50
REMARK   22  A    between atoms: _50  and  _51
REMARK   23  A    between atoms: _54  and  _56
REMARK   24  A    between atoms: _56  and  _57
REMARK   25  A    between atoms: _56  and  _59
REMARK   26  A    between atoms: _59  and  _60
REMARK   27  A    between atoms: _63  and  _65
REMARK   28  A    between atoms: _65  and  _66
REMARK   29  A    between atoms: _68  and  _70
REMARK   30  A    between atoms: _70  and  _71
REMARK   31  A    between atoms: _74  and  _76
REMARK   32  A    between atoms: _76  and  _77
REMARK   33  A    between atoms: _76  and  _79
REMARK   34  A    between atoms: _79  and  _80
REMARK   35  A    between atoms: _83  and  _85
REMARK   36  A    between atoms: _85  and  _86
REMARK   37  A    between atoms: _85  and  _88
REMARK   38  A    between atoms: _88  and  _89
REMARK   39  A    between atoms: _92  and  _94
REMARK   40  A    between atoms: _94  and  _95
REMARK   41  A    between atoms: _94  and  _97
REMARK   42  A    between atoms: _97  and  _98
REMARK   43  A    between atoms: _101  and  _103
REMARK   44  A    between atoms: _103  and  _104
REMARK   45  A    between atoms: _103  and  _106
REMARK   46  A    between atoms: _109  and  _111
REMARK   47  A    between atoms: _111  and  _112
REMARK   48  A    between atoms: _111  and  _114
REMARK   49  A    between atoms: _114  and  _115
REMARK   50  A    between atoms: _115  and  _116
REMARK   51  A    between atoms: _116  and  _117
REMARK   52  A    between atoms: _117  and  _118
REMARK   53  A    between atoms: _122  and  _124
REMARK   54  A    between atoms: _124  and  _125
REMARK   55  A    between atoms: _124  and  _127
REMARK   56  A    between atoms: _127  and  _128
REMARK   57  A    between atoms: _128  and  _129
REMARK   58  A    between atoms: _131  and  _133
REMARK   59  A    between atoms: _133  and  _134
REMARK   60  A    between atoms: _133  and  _136
REMARK   61  A    between atoms: _136  and  _137
REMARK   62  A    between atoms: _140  and  _142
REMARK   63  A    between atoms: _142  and  _143
REMARK   64  A    between atoms: _145  and  _147
REMARK   65  A    between atoms: _147  and  _148
REMARK   66  A    between atoms: _150  and  _152
REMARK   67  A    between atoms: _152  and  _153
REMARK   68  A    between atoms: _152  and  _155
REMARK   69  A    between atoms: _155  and  _156
REMARK   70  A    between atoms: _159  and  _161
REMARK   71  A    between atoms: _161  and  _162
REMARK   72  A    between atoms: _164  and  _166
REMARK   73  A    between atoms: _166  and  _167
REMARK   74  A    between atoms: _169  and  _171
REMARK   75  A    between atoms: _171  and  _172
REMARK   76  A    between atoms: _171  and  _174
REMARK   77  A    between atoms: _174  and  _175
REMARK   78  A    between atoms: _181  and  _183
REMARK   79  A    between atoms: _183  and  _184
REMARK   80  A    between atoms: _183  and  _186
REMARK   81  A    between atoms: _186  and  _187
REMARK   82  A    between atoms: _190  and  _192
REMARK   83  A    between atoms: _192  and  _193
REMARK   84  A    between atoms: _192  and  _195
REMARK   85  A    between atoms: _198  and  _200
REMARK   86  A    between atoms: _200  and  _201
REMARK   87  A    between atoms: _200  and  _203
REMARK   88  A    between atoms: _203  and  _204
REMARK   89  A    between atoms: _207  and  _209
REMARK   90  A    between atoms: _209  and  _210
REMARK   91  A    between atoms: _209  and  _212
REMARK   92  A    between atoms: _212  and  _213
REMARK   93  A    between atoms: _217  and  _218
REMARK   94  A    between atoms: _223  and  _225
REMARK   95  A    between atoms: _225  and  _226
REMARK   96  A    between atoms: _225  and  _228
REMARK   97  A    between atoms: _231  and  _233
REMARK   98  A    between atoms: _233  and  _234
REMARK   99  A    between atoms: _233  and  _236
REMARK  100  A    between atoms: _236  and  _237
REMARK  101  A    between atoms: _242  and  _244
REMARK  102  A    between atoms: _244  and  _245
REMARK  103  A    between atoms: _244  and  _247
REMARK  104  A    between atoms: _247  and  _248
REMARK  105  A    between atoms: _251  and  _253
REMARK  106  A    between atoms: _253  and  _254
REMARK  107  A    between atoms: _253  and  _256
REMARK  108  A    between atoms: _256  and  _257
REMARK  109  A    between atoms: _260  and  _262
REMARK  110  A    between atoms: _262  and  _263
REMARK  111  A    between atoms: _265  and  _267
REMARK  112  A    between atoms: _267  and  _268
REMARK  113  A    between atoms: _267  and  _270
REMARK  114  A    between atoms: _270  and  _271
REMARK  115  A    between atoms: _271  and  _272
REMARK  116  A    between atoms: _272  and  _273
REMARK  117  A    between atoms: _282  and  _284
REMARK  118  A    between atoms: _284  and  _285
REMARK  119  A    between atoms: _284  and  _287
REMARK  120  A    between atoms: _287  and  _288
REMARK  121  A    between atoms: _293  and  _295
REMARK  122  A    between atoms: _295  and  _296
REMARK  123  A    between atoms: _295  and  _298
REMARK  124  A    between atoms: _298  and  _299
REMARK  125  A    between atoms: _299  and  _300
REMARK  126  A    between atoms: _300  and  _301
REMARK  127  A    between atoms: _311  and  _312
REMARK  128  A    between atoms: _317  and  _319
REMARK  129  A    between atoms: _319  and  _320
REMARK  130  A    between atoms: _319  and  _322
REMARK  131  A    between atoms: _322  and  _323
REMARK  132  A    between atoms: _326  and  _328
REMARK  133  A    between atoms: _328  and  _329
REMARK  134  A    between atoms: _328  and  _331
REMARK  135  A    between atoms: _331  and  _332
REMARK  136  A    between atoms: _335  and  _337
REMARK  137  A    between atoms: _337  and  _338
REMARK  138  A    between atoms: _337  and  _340
REMARK  139  A    between atoms: _340  and  _341
REMARK  140  A    between atoms: _344  and  _346
REMARK  141  A    between atoms: _346  and  _347
REMARK  142  A    between atoms: _346  and  _349
REMARK  143  A    between atoms: _349  and  _350
REMARK  144  A    between atoms: _353  and  _355
REMARK  145  A    between atoms: _355  and  _356
REMARK  146  A    between atoms: _355  and  _358
REMARK  147  A    between atoms: _358  and  _359
REMARK  148  A    between atoms: _362  and  _364
REMARK  149  A    between atoms: _364  and  _365
REMARK  150  A    between atoms: _367  and  _369
REMARK  151  A    between atoms: _369  and  _370
REMARK  152  A    between atoms: _373  and  _375
REMARK  153  A    between atoms: _375  and  _376
REMARK  154  A    between atoms: _375  and  _378
REMARK  155  A    between atoms: _378  and  _379
REMARK  156  A    between atoms: _382  and  _384
REMARK  157  A    between atoms: _384  and  _385
REMARK  158  A    between atoms: _384  and  _387
REMARK  159  A    between atoms: _387  and  _388
REMARK  160  A    between atoms: _391  and  _393
REMARK  161  A    between atoms: _393  and  _394
REMARK  162  A    between atoms: _393  and  _396
REMARK  163  A    between atoms: _396  and  _397
REMARK  164  A    between atoms: _400  and  _402
REMARK  165  A    between atoms: _402  and  _403
REMARK  166  A    between atoms: _402  and  _405
REMARK  167  A    between atoms: _408  and  _410
REMARK  168  A    between atoms: _410  and  _411
REMARK  169  A    between atoms: _410  and  _413
REMARK  170  A    between atoms: _413  and  _414
REMARK  171  A    between atoms: _417  and  _419
REMARK  172  A    between atoms: _419  and  _420
REMARK  173  A    between atoms: _422  and  _424
REMARK  174  A    between atoms: _424  and  _425
REMARK  175  A    between atoms: _429  and  _430
REMARK  176  A    between atoms: _429  and  _432
REMARK  177  A    between atoms: _432  and  _433
REMARK  178  A    between atoms: _436  and  _438
REMARK  179  A    between atoms: _438  and  _439
REMARK  180  A    between atoms: _441  and  _443
REMARK  181  A    between atoms: _443  and  _444
REMARK  182  A    between atoms: _446  and  _448
REMARK  183  A    between atoms: _448  and  _449
REMARK  184  A    between atoms: _448  and  _451
REMARK  185  A    between atoms: _451  and  _452
REMARK  186  A    between atoms: _458  and  _460
REMARK  187  A    between atoms: _460  and  _461
REMARK  188  A    between atoms: _460  and  _463
REMARK  189  A    between atoms: _463  and  _464
REMARK  190  A    between atoms: _467  and  _469
REMARK  191  A    between atoms: _469  and  _470
REMARK  192  A    between atoms: _469  and  _472
REMARK  193  A    between atoms: _472  and  _473
REMARK  194  A    between atoms: _476  and  _478
REMARK  195  A    between atoms: _478  and  _479
REMARK  196  A    between atoms: _478  and  _481
REMARK  197  A    between atoms: _481  and  _482
REMARK  198  A    between atoms: _486  and  _487
REMARK  199  A    between atoms: _492  and  _494
REMARK  200  A    between atoms: _494  and  _495
REMARK  201  A    between atoms: _494  and  _497
REMARK  202  A    between atoms: _500  and  _502
REMARK  203  A    between atoms: _502  and  _503
REMARK  204  A    between atoms: _502  and  _505
REMARK  205  A    between atoms: _505  and  _506
REMARK  206  A    between atoms: _511  and  _513
REMARK  207  A    between atoms: _513  and  _514
REMARK  208  A    between atoms: _513  and  _516
REMARK  209  A    between atoms: _516  and  _517
REMARK  210  A    between atoms: _520  and  _522
REMARK  211  A    between atoms: _522  and  _523
REMARK  212  A    between atoms: _525  and  _527
REMARK  213  A    between atoms: _527  and  _528
REMARK  214  A    between atoms: _527  and  _530
REMARK  215  A    between atoms: _530  and  _531
REMARK  216  A    between atoms: _531  and  _532
REMARK  217  A    between atoms: _532  and  _533
REMARK                            x       y       z     vdW  Elec       q    Type
REMARK                         _______ _______ _______ _____ _____    ______ ____
ROOT
ATOM      1  CA  LEU A   1      25.327  28.383  10.822  0.00  0.00    +0.133 C 
ENDROOT
BRANCH   1   2
ATOM      2  N   LEU A   1      25.698  28.230   9.426  0.00  0.00    -0.239 NA
ATOM      3  H   LEU A   1      26.588  27.739   9.204  0.00  0.00    +0.142 HD
ENDBRANCH   1   2
BRANCH   1   4
ATOM      4  C   LEU A   1      25.958  29.655  11.391  0.00  0.00    +0.224 C 
ATOM      5  O   LEU A   1      27.100  29.991  11.056  0.00  0.00    -0.287 OA
ENDBRANCH   1   4
BRANCH   1   6
ATOM      6  CB  LEU A   1      25.806  27.156  11.622  0.00  0.00    +0.025 C 
BRANCH   6   7
ATOM      7  CG  LEU A   1      25.098  25.844  11.328  0.00  0.00    +0.002 C 
ATOM      8  CD2 LEU A   1      23.745  25.777  12.021  0.00  0.00    +0.000 C 
ATOM      9  CD1 LEU A   1      25.960  24.644  11.735  0.00  0.00    +0.000 C 
ENDBRANCH   6   7
ENDBRANCH   1   6
TORSDOF 4
REMARK  Name = ../refined-set-2016/1d4y/1d4y_pocket.pdb
REMARK  217 active torsions:
REMARK  status: ('A' for Active; 'I' for Inactive)
REMARK    1  A    between atoms: _1  and  _3
REMARK    2  A    between atoms: _3  and  _4
REMARK    3  A    between atoms: _3  and  _6
REMARK    4  A    between atoms: _6  and  _7
REMARK    5  A    between atoms: _7  and  _8
REMARK    6  A    between atoms: _8  and  _9
REMARK    7  A    between atoms: _18  and  _20
REMARK    8  A    between atoms: _20  and  _21
REMARK    9  A    between atoms: _20  and  _23
REMARK   10  A    between atoms: _23  and  _24
REMARK   11  A    between atoms: _27  and  _29
REMARK   12  A    between atoms: _29  and  _30
REMARK   13  A    between atoms: _29  and  _32
REMARK   14  A    between atoms: _32  and  _33
REMARK   15  A    between atoms: _36  and  _38
REMARK   16  A    between atoms: _38  and  _39
REMARK   17  A    between atoms: _38  and  _41
REMARK   18  A    between atoms: _41  and  _42
REMARK   19  A    between atoms: _45  and  _47
REMARK   20  A    between atoms: _47  and  _48
REMARK   21  A    between atoms: _47  and  _50
REMARK   22  A    between atoms: _50  and  _51
REMARK   23  A    between atoms: _54  and  _56
REMARK   24  A    between atoms: _56  and  _57
REMARK   25  A    between atoms: _56  and  _59
REMARK   26  A    between atoms: _59  and  _60
REMARK   27  A    between atoms: _63  and  _65
REMARK   28  A    between atoms: _65  and  _66
REMARK   29  A    between atoms: _68  and  _70
REMARK   30  A    between atoms: _70  and  _71
REMARK   31  A    between atoms: _74  and  _76
REMARK   32  A    between atoms: _76  and  _77
REMARK   33  A    between atoms: _76  and  _79
REMARK   34  A    between atoms: _79  and  _80
REMARK   35  A    between atoms: _83  and  _85
REMARK   36  A    between atoms: _85  and  _86
REMARK   37  A    between atoms: _85  and  _88
REMARK   38  A    between atoms: _88  and  _89
REMARK   39  A    between atoms: _92  and  _94
REMARK   40  A    between atoms: _94  and  _95
REMARK   41  A    between atoms: _94  and  _97
REMARK   42  A    between atoms: _97  and  _98
REMARK   43  A    between atoms: _101  and  _103
REMARK   44  A    between atoms: _103  and  _104
REMARK   45  A    between atoms: _103  and  _106
REMARK   46  A    between atoms: _109  and  _111
REMARK   47  A    between atoms: _111  and  _112
REMARK   48  A    between atoms: _111  and  _114
REMARK   49  A    between atoms: _114  and  _115
REMARK   50  A    between atoms: _115  and  _116
REMARK   51  A    between atoms: _116  and  _117
REMARK   52  A    between atoms: _117  and  _118
REMARK   53  A    between atoms: _122  and  _124
REMARK   54  A    between atoms: _124  and  _125
REMARK   55  A    between atoms: _124  and  _127
REMARK   56  A    between atoms: _127  and  _128
REMARK   57  A    between atoms: _128  and  _129
REMARK   58  A    between atoms: _131  and  _133
REMARK   59  A    between atoms: _133  and  _134
REMARK   60  A    between atoms: _133  and  _136
REMARK   61  A    between atoms: _136  and  _137
REMARK   62  A    between atoms: _140  and  _142
REMARK   63  A    between atoms: _142  and  _143
REMARK   64  A    between atoms: _145  and  _147
REMARK   65  A    between atoms: _147  and  _148
REMARK   66  A    between atoms: _150  and  _152
REMARK   67  A    between atoms: _152  and  _153
REMARK   68  A    between atoms: _152  and  _155
REMARK   69  A    between atoms: _155  and  _156
REMARK   70  A    between atoms: _159  and  _161
REMARK   71  A    between atoms: _161  and  _162
REMARK   72  A    between atoms: _164  and  _166
REMARK   73  A    between atoms: _166  and  _167
REMARK   74  A    between atoms: _169  and  _171
REMARK   75  A    between atoms: _171  and  _172
REMARK   76  A    between atoms: _171  and  _174
REMARK   77  A    between atoms: _174  and  _175
REMARK   78  A    between atoms: _181  and  _183
REMARK   79  A    between atoms: _183  and  _184
REMARK   80  A    between atoms: _183  and  _186
REMARK   81  A    between atoms: _186  and  _187
REMARK   82  A    between atoms: _190  and  _192
REMARK   83  A    between atoms: _192  and  _193
REMARK   84  A    between atoms: _192  and  _195
REMARK   85  A    between atoms: _198  and  _200
REMARK   86  A    between atoms: _200  and  _201
REMARK   87  A    between atoms: _200  and  _203
REMARK   88  A    between atoms: _203  and  _204
REMARK   89  A    between atoms: _207  and  _209
REMARK   90  A    between atoms: _209  and  _210
REMARK   91  A    between atoms: _209  and  _212
REMARK   92  A    between atoms: _212  and  _213
REMARK   93  A    between atoms: _217  and  _218
REMARK   94  A    between atoms: _223  and  _225
REMARK   95  A    between atoms: _225  and  _226
REMARK   96  A    between atoms: _225  and  _228
REMARK   97  A    between atoms: _231  and  _233
REMARK   98  A    between atoms: _233  and  _234
REMARK   99  A    between atoms: _233  and  _236
REMARK  100  A    between atoms: _236  and  _237
REMARK  101  A    between atoms: _242  and  _244
REMARK  102  A    between atoms: _244  and  _245
REMARK  103  A    between atoms: _244  and  _247
REMARK  104  A    between atoms: _247  and  _248
REMARK  105  A    between atoms: _251  and  _253
REMARK  106  A    between atoms: _253  and  _254
REMARK  107  A    between atoms: _253  and  _256
REMARK  108  A    between atoms: _256  and  _257
REMARK  109  A    between atoms: _260  and  _262
REMARK  110  A    between atoms: _262  and  _263
REMARK  111  A    between atoms: _265  and  _267
REMARK  112  A    between atoms: _267  and  _268
REMARK  113  A    between atoms: _267  and  _270
REMARK  114  A    between atoms: _270  and  _271
REMARK  115  A    between atoms: _271  and  _272
REMARK  116  A    between atoms: _272  and  _273
REMARK  117  A    between atoms: _282  and  _284
REMARK  118  A    between atoms: _284  and  _285
REMARK  119  A    between atoms: _284  and  _287
REMARK  120  A    between atoms: _287  and  _288
REMARK  121  A    between atoms: _293  and  _295
REMARK  122  A    between atoms: _295  and  _296
REMARK  123  A    between atoms: _295  and  _298
REMARK  124  A    between atoms: _298  and  _299
REMARK  125  A    between atoms: _299  and  _300
REMARK  126  A    between atoms: _300  and  _301
REMARK  127  A    between atoms: _311  and  _312
REMARK  128  A    between atoms: _317  and  _319
REMARK  129  A    between atoms: _319  and  _320
REMARK  130  A    between atoms: _319  and  _322
REMARK  131  A    between atoms: _322  and  _323
REMARK  132  A    between atoms: _326  and  _328
REMARK  133  A    between atoms: _328  and  _329
REMARK  134  A    between atoms: _328  and  _331
REMARK  135  A    between atoms: _331  and  _332
REMARK  136  A    between atoms: _335  and  _337
REMARK  137  A    between atoms: _337  and  _338
REMARK  138  A    between atoms: _337  and  _340
REMARK  139  A    between atoms: _340  and  _341
REMARK  140  A    between atoms: _344  and  _346
REMARK  141  A    between atoms: _346  and  _347
REMARK  142  A    between atoms: _346  and  _349
REMARK  143  A    between atoms: _349  and  _350
REMARK  144  A    between atoms: _353  and  _355
REMARK  145  A    between atoms: _355  and  _356
REMARK  146  A    between atoms: _355  and  _358
REMARK  147  A    between atoms: _358  and  _359
REMARK  148  A    between atoms: _362  and  _364
REMARK  149  A    between atoms: _364  and  _365
REMARK  150  A    between atoms: _367  and  _369
REMARK  151  A    between atoms: _369  and  _370
REMARK  152  A    between atoms: _373  and  _375
REMARK  153  A    between atoms: _375  and  _376
REMARK  154  A    between atoms: _375  and  _378
REMARK  155  A    between atoms: _378  and  _379
REMARK  156  A    between atoms: _382  and  _384
REMARK  157  A    between atoms: _384  and  _385
REMARK  158  A    between atoms: _384  and  _387
REMARK  159  A    between atoms: _387  and  _388
REMARK  160  A    between atoms: _391  and  _393
REMARK  161  A    between atoms: _393  and  _394
REMARK  162  A    between atoms: _393  and  _396
REMARK  163  A    between atoms: _396  and  _397
REMARK  164  A    between atoms: _400  and  _402
REMARK  165  A    between atoms: _402  and  _403
REMARK  166  A    between atoms: _402  and  _405
REMARK  167  A    between atoms: _408  and  _410
REMARK  168  A    between atoms: _410  and  _411
REMARK  169  A    between atoms: _410  and  _413
REMARK  170  A    between atoms: _413  and  _414
REMARK  171  A    between atoms: _417  and  _419
REMARK  172  A    between atoms: _419  and  _420
REMARK  173  A    between atoms: _422  and  _424
REMARK  174  A    between atoms: _424  and  _425
REMARK  175  A    between atoms: _429  and  _430
REMARK  176  A    between atoms: _429  and  _432
REMARK  177  A    between atoms: _432  and  _433
REMARK  178  A    between atoms: _436  and  _438
REMARK  179  A    between atoms: _438  and  _439
REMARK  180  A    between atoms: _441  and  _443
REMARK  181  A    between atoms: _443  and  _444
REMARK  182  A    between atoms: _446  and  _448
REMARK  183  A    between atoms: _448  and  _449
REMARK  184  A    between atoms: _448  and  _451
REMARK  185  A    between atoms: _451  and  _452
REMARK  186  A    between atoms: _458  and  _460
REMARK  187  A    between atoms: _460  and  _461
REMARK  188  A    between atoms: _460  and  _463
REMARK  189  A    between atoms: _463  and  _464
REMARK  190  A    between atoms: _467  and  _469
REMARK  191  A    between atoms: _469  and  _470
REMARK  192  A    between atoms: _469  and  _472
REMARK  193  A    between atoms: _472  and  _473
REMARK  194  A    between atoms: _476  and  _478
REMARK  195  A    between atoms: _478  and  _479
REMARK  196  A    between atoms: _478  and  _481
REMARK  197  A    between atoms: _481  and  _482
REMARK  198  A    between atoms: _486  and  _487
REMARK  199  A    between atoms: _492  and  _494
REMARK  200  A    between atoms: _494  and  _495
REMARK  201  A    between atoms: _494  and  _497
REMARK  202  A    between atoms: _500  and  _502
REMARK  203  A    between atoms: _502  and  _503
REMARK  204  A    between atoms: _502  and  _505
REMARK  205  A    between atoms: _505  and  _506
REMARK  206  A    between atoms: _511  and  _513
REMARK  207  A    between atoms: _513  and  _514
REMARK  208  A    between atoms: _513  and  _516
REMARK  209  A    between atoms: _516  and  _517
REMARK  210  A    between atoms: _520  and  _522
REMARK  211  A    between atoms: _522  and  _523
REMARK  212  A    between atoms: _525  and  _527
REMARK  213  A    between atoms: _527  and  _528
REMARK  214  A    between atoms: _527  and  _530
REMARK  215  A    between atoms: _530  and  _531
REMARK  216  A    between atoms: _531  and  _532
REMARK  217  A    between atoms: _532  and  _533
REMARK                            x       y       z     vdW  Elec       q    Type
REMARK                         _______ _______ _______ _____ _____    ______ ____
ROOT
ATOM      1  C   GLY A   5      12.705  28.871   3.015  0.00  0.00    +0.243 C 
ATOM      2  N   ALA A   6      13.085  29.346   4.201  0.00  0.00    -0.297 N 
ATOM      3  H   ALA A   6      14.070  29.635   4.369  0.00  0.00    +0.150 HD
ATOM      4  O   GLY A   5      11.529  28.611   2.756  0.00  0.00    -0.273 OA
ENDROOT
BRANCH   2   5
ATOM      5  CA  ALA A   6      12.068  29.451   5.273  0.00  0.00    +0.149 C 
ATOM      6  CB  ALA A   6      12.842  29.359   6.611  0.00  0.00    +0.031 C 
BRANCH   5   7
ATOM      7  C   ALA A   6      11.407  30.829   5.221  0.00  0.00    +0.241 C 
ATOM      8  N   ASP A   7      10.087  30.874   5.289  0.00  0.00    -0.297 N 
ATOM      9  H   ASP A   7       9.527  30.000   5.343  0.00  0.00    +0.150 HD
ATOM     10  O   ALA A   6      12.119  31.844   5.187  0.00  0.00    -0.273 OA
BRANCH   8  11
ATOM     11  CA  ASP A   7       9.424  32.203   5.287  0.00  0.00    +0.160 C 
BRANCH  11  12
ATOM     12  C   ASP A   7       9.605  32.812   6.696  0.00  0.00    +0.241 C 
ATOM     13  N   ASP A   8       9.524  31.970   7.707  0.00  0.00    -0.297 N 
ATOM     14  H   ASP A   8       9.447  30.954   7.497  0.00  0.00    +0.150 HD
ATOM     15  O   ASP A   7       9.732  34.006   6.799  0.00  0.00    -0.273 OA
BRANCH  13  16
ATOM     16  CA  ASP A   8       9.537  32.382   9.090  0.00  0.00    +0.160 C 
BRANCH  16  17
ATOM     17  C   ASP A   8      10.801  31.900   9.822  0.00  0.00    +0.241 C 
ATOM     18  N   THR A   9      11.014  32.513  10.973  0.00  0.00    -0.295 N 
ATOM     19  H   THR A   9      10.374  33.279  11.266  0.00  0.00    +0.150 HD
ATOM     20  O   ASP A   8      11.466  30.968   9.391  0.00  0.00    -0.273 OA
BRANCH  18  21
ATOM     21  CA  THR A   9      12.138  32.138  11.854  0.00  0.00    +0.176 C 
BRANCH  21  22
ATOM     22  C   THR A   9      11.602  31.225  12.955  0.00  0.00    +0.243 C 
ATOM     23  O   THR A   9      10.610  31.542  13.589  0.00  0.00    -0.273 OA
ATOM     24  N   VAL A  10      12.227  30.062  13.120  0.00  0.00    -0.298 N 
ATOM     25  H   VAL A  10      13.082  29.842  12.571  0.00  0.00    +0.150 HD
BRANCH  24  26
ATOM     26  CA  VAL A  10      11.688  29.079  14.100  0.00  0.00    +0.137 C 
BRANCH  26  27
ATOM     27  CB  VAL A  10      11.279  27.776  13.316  0.00  0.00    +0.026 C 
ATOM     28  CG2 VAL A  10      10.467  26.886  14.273  0.00  0.00    +0.002 C 
ATOM     29  CG1 VAL A  10      10.398  28.180  12.136  0.00  0.00    +0.002 C 
ENDBRANCH  26  27
BRANCH  26  30
ATOM     30  C   VAL A  10      12.865  28.650  15.015  0.00  0.00    +0.227 C 
ATOM     31  O   VAL A  10      13.892  28.235  14.493  0.00  0.00    -0.286 OA
ENDBRANCH  26  30
ENDBRANCH  24  26
ENDBRANCH  21  22
BRANCH  21  32
ATOM     32  CB  THR A   9      12.664  33.455  12.506  0.00  0.00    +0.137 C 
ATOM     33  CG2 THR A   9      13.822  33.165  13.431  0.00  0.00    +0.034 C 
BRANCH  32  34
ATOM     34  OG1 THR A   9      13.210  34.231  11.388  0.00  0.00    -0.382 OA
ATOM     35  HG1 THR A   9      12.493  34.407  10.729  0.00  0.00    +0.210 HD
ENDBRANCH  32  34
ENDBRANCH  21  32
ENDBRANCH  18  21
ENDBRANCH  16  17
BRANCH  16  36
ATOM     36  CB  ASP A   8       8.335  31.768   9.859  0.00  0.00    +0.143 C 
BRANCH  36  37
ATOM     37  CG  ASP A   8       7.003  32.004   9.220  0.00  0.00    +0.367 C 
ATOM     38  OD2 ASP A   8       6.572  33.175   9.078  0.00  0.00    -0.246 OA
ATOM     39  OD1 ASP A   8       6.302  31.008   8.894  0.00  0.00    -0.246 OA
ENDBRANCH  36  37
ENDBRANCH  16  36
ENDBRANCH  13  16
ENDBRANCH  11  12
BRANCH  11  40
ATOM     40  CB  ASP A   7       7.899  32.013   5.118  0.00  0.00    +0.143 C 
BRANCH  40  41
ATOM     41  CG  ASP A   7       7.512  31.576   3.734  0.00  0.00    +0.367 C 
ATOM     42  OD2 ASP A   7       6.423  30.960   3.590  0.00  0.00    -0.246 OA
ATOM     43  OD1 ASP A   7       8.277  31.809   2.788  0.00  0.00    -0.246 OA
ENDBRANCH  40  41
ENDBRANCH  11  40
ENDBRANCH   8  11
ENDBRANCH   5   7
ENDBRANCH   2   5
BRANCH   1  44
ATOM     44  CA  GLY A   5      13.782  28.728   1.956  0.00  0.00    +0.176 C 
BRANCH  44  46
ATOM     45  C   THR A   4      15.153  30.728   1.996  0.00  0.00    +0.243 C 
ATOM     46  N   GLY A   5      14.987  29.457   2.346  0.00  0.00    -0.295 N 
ATOM     47  H   GLY A   5      15.722  28.976   2.903  0.00  0.00    +0.150 HD
ATOM     48  O   THR A   4      14.325  31.365   1.344  0.00  0.00    -0.273 OA
BRANCH  45  49
ATOM     49  CA  THR A   4      16.449  31.394   2.473  0.00  0.00    +0.176 C 
BRANCH  49  52
ATOM     50  C   ASP A   3      16.781  30.351   4.653  0.00  0.00    +0.241 C 
ATOM     51  O   ASP A   3      15.759  30.858   5.106  0.00  0.00    -0.273 OA
ATOM     52  N   THR A   4      17.170  30.536   3.401  0.00  0.00    -0.295 N 
ATOM     53  H   THR A   4      18.026  30.048   3.067  0.00  0.00    +0.150 HD
BRANCH  50  54
ATOM     54  CA  ASP A   3      17.650  29.467   5.529  0.00  0.00    +0.160 C 
BRANCH  54  56
ATOM     55  C   LEU A   2      19.740  30.188   6.534  0.00  0.00    +0.241 C 
ATOM     56  N   ASP A   3      18.426  30.260   6.497  0.00  0.00    -0.297 N 
ATOM     57  H   ASP A   3      17.929  30.886   7.162  0.00  0.00    +0.150 HD
ATOM     58  O   LEU A   2      20.373  29.499   5.739  0.00  0.00    -0.273 OA
BRANCH  55  59
ATOM     59  CA  LEU A   2      20.427  30.939   7.698  0.00  0.00    +0.149 C 
BRANCH  59  62
ATOM     60  C   LEU A   1      20.319  29.298   9.510  0.00  0.00    +0.238 C 
ATOM     61  O   LEU A   1      19.145  29.596   9.751  0.00  0.00    -0.274 OA
ATOM     62  N   LEU A   2      21.032  29.937   8.596  0.00  0.00    -0.297 N 
ATOM     63  H   LEU A   2      22.047  29.727   8.508  0.00  0.00    +0.150 HD
BRANCH  60  64
ATOM     64  CA  LEU A   1      21.022  28.206  10.324  0.00  0.00    +0.145 C 
BRANCH  64  65
ATOM     65  N   LEU A   1      20.775  28.422  11.750  0.00  0.00    -0.238 NA
ATOM     66  H   LEU A   1      19.869  28.102  12.149  0.00  0.00    +0.142 HD
ENDBRANCH  64  65
BRANCH  64  67
ATOM     67  CB  LEU A   1      20.435  26.824  10.021  0.00  0.00    +0.026 C 
BRANCH  67  68
ATOM     68  CG  LEU A   1      20.699  26.119   8.742  0.00  0.00    +0.002 C 
ATOM     69  CD2 LEU A   1      19.826  24.861   8.608  0.00  0.00    +0.000 C 
ATOM     70  CD1 LEU A   1      22.138  25.842   8.451  0.00  0.00    +0.000 C 
ENDBRANCH  67  68
ENDBRANCH  64  67
ENDBRANCH  60  64
ENDBRANCH  59  62
BRANCH  59  71
ATOM     71  CB  LEU A   2      21.506  31.847   7.134  0.00  0.00    +0.029 C 
BRANCH  71  72
ATOM     72  CG  LEU A   2      22.444  32.539   8.135  0.00  0.00    +0.002 C 
ATOM     73  CD2 LEU A   2      21.648  33.383   9.136  0.00  0.00    +0.000 C 
ATOM     74  CD1 LEU A   2      23.402  33.465   7.373  0.00  0.00    +0.000 C 
ENDBRANCH  71  72
ENDBRANCH  59  71
ENDBRANCH  55  59
ENDBRANCH  54  56
BRANCH  54  75
ATOM     75  CB  ASP A   3      16.734  28.537   6.378  0.00  0.00    +0.143 C 
BRANCH  75  76
ATOM     76  CG  ASP A   3      16.029  27.526   5.524  0.00  0.00    +0.367 C 
ATOM     77  OD2 ASP A   3      15.564  26.482   6.065  0.00  0.00    -0.246 OA
ATOM     78  OD1 ASP A   3      15.948  27.713   4.305  0.00  0.00    -0.246 OA
ENDBRANCH  75  76
ENDBRANCH  54  75
ENDBRANCH  50  54
ENDBRANCH  49  52
BRANCH  49  79
ATOM     79  CB  THR A   4      17.285  31.724   1.219  0.00  0.00    +0.137 C 
ATOM     80  CG2 THR A   4      18.583  32.410   1.562  0.00  0.00    +0.034 C 
BRANCH  79  81
ATOM     81  OG1 THR A   4      17.638  30.454   0.604  0.00  0.00    -0.382 OA
ATOM     82  HG1 THR A   4      16.812  29.967   0.358  0.00  0.00    +0.210 HD
ENDBRANCH  79  81
ENDBRANCH  49  79
ENDBRANCH  45  49
ENDBRANCH  44  46
ENDBRANCH   1  44
TORSDOF 35
REMARK  Name = ../refined-set-2016/1d4y/1d4y_pocket.pdb
REMARK  217 active torsions:
REMARK  status: ('A' for Active; 'I' for Inactive)
REMARK    1  A    between atoms: _1  and  _3
REMARK    2  A    between atoms: _3  and  _4
REMARK    3  A    between atoms: _3  and  _6
REMARK    4  A    between atoms: _6  and  _7
REMARK    5  A    between atoms: _7  and  _8
REMARK    6  A    between atoms: _8  and  _9
REMARK    7  A    between atoms: _18  and  _20
REMARK    8  A    between atoms: _20  and  _21
REMARK    9  A    between atoms: _20  and  _23
REMARK   10  A    between atoms: _23  and  _24
REMARK   11  A    between atoms: _27  and  _29
REMARK   12  A    between atoms: _29  and  _30
REMARK   13  A    between atoms: _29  and  _32
REMARK   14  A    between atoms: _32  and  _33
REMARK   15  A    between atoms: _36  and  _38
REMARK   16  A    between atoms: _38  and  _39
REMARK   17  A    between atoms: _38  and  _41
REMARK   18  A    between atoms: _41  and  _42
REMARK   19  A    between atoms: _45  and  _47
REMARK   20  A    between atoms: _47  and  _48
REMARK   21  A    between atoms: _47  and  _50
REMARK   22  A    between atoms: _50  and  _51
REMARK   23  A    between atoms: _54  and  _56
REMARK   24  A    between atoms: _56  and  _57
REMARK   25  A    between atoms: _56  and  _59
REMARK   26  A    between atoms: _59  and  _60
REMARK   27  A    between atoms: _63  and  _65
REMARK   28  A    between atoms: _65  and  _66
REMARK   29  A    between atoms: _68  and  _70
REMARK   30  A    between atoms: _70  and  _71
REMARK   31  A    between atoms: _74  and  _76
REMARK   32  A    between atoms: _76  and  _77
REMARK   33  A    between atoms: _76  and  _79
REMARK   34  A    between atoms: _79  and  _80
REMARK   35  A    between atoms: _83  and  _85
REMARK   36  A    between atoms: _85  and  _86
REMARK   37  A    between atoms: _85  and  _88
REMARK   38  A    between atoms: _88  and  _89
REMARK   39  A    between atoms: _92  and  _94
REMARK   40  A    between atoms: _94  and  _95
REMARK   41  A    between atoms: _94  and  _97
REMARK   42  A    between atoms: _97  and  _98
REMARK   43  A    between atoms: _101  and  _103
REMARK   44  A    between atoms: _103  and  _104
REMARK   45  A    between atoms: _103  and  _106
REMARK   46  A    between atoms: _109  and  _111
REMARK   47  A    between atoms: _111  and  _112
REMARK   48  A    between atoms: _111  and  _114
REMARK   49  A    between atoms: _114  and  _115
REMARK   50  A    between atoms: _115  and  _116
REMARK   51  A    between atoms: _116  and  _117
REMARK   52  A    between atoms: _117  and  _118
REMARK   53  A    between atoms: _122  and  _124
REMARK   54  A    between atoms: _124  and  _125
REMARK   55  A    between atoms: _124  and  _127
REMARK   56  A    between atoms: _127  and  _128
REMARK   57  A    between atoms: _128  and  _129
REMARK   58  A    between atoms: _131  and  _133
REMARK   59  A    between atoms: _133  and  _134
REMARK   60  A    between atoms: _133  and  _136
REMARK   61  A    between atoms: _136  and  _137
REMARK   62  A    between atoms: _140  and  _142
REMARK   63  A    between atoms: _142  and  _143
REMARK   64  A    between atoms: _145  and  _147
REMARK   65  A    between atoms: _147  and  _148
REMARK   66  A    between atoms: _150  and  _152
REMARK   67  A    between atoms: _152  and  _153
REMARK   68  A    between atoms: _152  and  _155
REMARK   69  A    between atoms: _155  and  _156
REMARK   70  A    between atoms: _159  and  _161
REMARK   71  A    between atoms: _161  and  _162
REMARK   72  A    between atoms: _164  and  _166
REMARK   73  A    between atoms: _166  and  _167
REMARK   74  A    between atoms: _169  and  _171
REMARK   75  A    between atoms: _171  and  _172
REMARK   76  A    between atoms: _171  and  _174
REMARK   77  A    between atoms: _174  and  _175
REMARK   78  A    between atoms: _181  and  _183
REMARK   79  A    between atoms: _183  and  _184
REMARK   80  A    between atoms: _183  and  _186
REMARK   81  A    between atoms: _186  and  _187
REMARK   82  A    between atoms: _190  and  _192
REMARK   83  A    between atoms: _192  and  _193
REMARK   84  A    between atoms: _192  and  _195
REMARK   85  A    between atoms: _198  and  _200
REMARK   86  A    between atoms: _200  and  _201
REMARK   87  A    between atoms: _200  and  _203
REMARK   88  A    between atoms: _203  and  _204
REMARK   89  A    between atoms: _207  and  _209
REMARK   90  A    between atoms: _209  and  _210
REMARK   91  A    between atoms: _209  and  _212
REMARK   92  A    between atoms: _212  and  _213
REMARK   93  A    between atoms: _217  and  _218
REMARK   94  A    between atoms: _223  and  _225
REMARK   95  A    between atoms: _225  and  _226
REMARK   96  A    between atoms: _225  and  _228
REMARK   97  A    between atoms: _231  and  _233
REMARK   98  A    between atoms: _233  and  _234
REMARK   99  A    between atoms: _233  and  _236
REMARK  100  A    between atoms: _236  and  _237
REMARK  101  A    between atoms: _242  and  _244
REMARK  102  A    between atoms: _244  and  _245
REMARK  103  A    between atoms: _244  and  _247
REMARK  104  A    between atoms: _247  and  _248
REMARK  105  A    between atoms: _251  and  _253
REMARK  106  A    between atoms: _253  and  _254
REMARK  107  A    between atoms: _253  and  _256
REMARK  108  A    between atoms: _256  and  _257
REMARK  109  A    between atoms: _260  and  _262
REMARK  110  A    between atoms: _262  and  _263
REMARK  111  A    between atoms: _265  and  _267
REMARK  112  A    between atoms: _267  and  _268
REMARK  113  A    between atoms: _267  and  _270
REMARK  114  A    between atoms: _270  and  _271
REMARK  115  A    between atoms: _271  and  _272
REMARK  116  A    between atoms: _272  and  _273
REMARK  117  A    between atoms: _282  and  _284
REMARK  118  A    between atoms: _284  and  _285
REMARK  119  A    between atoms: _284  and  _287
REMARK  120  A    between atoms: _287  and  _288
REMARK  121  A    between atoms: _293  and  _295
REMARK  122  A    between atoms: _295  and  _296
REMARK  123  A    between atoms: _295  and  _298
REMARK  124  A    between atoms: _298  and  _299
REMARK  125  A    between atoms: _299  and  _300
REMARK  126  A    between atoms: _300  and  _301
REMARK  127  A    between atoms: _311  and  _312
REMARK  128  A    between atoms: _317  and  _319
REMARK  129  A    between atoms: _319  and  _320
REMARK  130  A    between atoms: _319  and  _322
REMARK  131  A    between atoms: _322  and  _323
REMARK  132  A    between atoms: _326  and  _328
REMARK  133  A    between atoms: _328  and  _329
REMARK  134  A    between atoms: _328  and  _331
REMARK  135  A    between atoms: _331  and  _332
REMARK  136  A    between atoms: _335  and  _337
REMARK  137  A    between atoms: _337  and  _338
REMARK  138  A    between atoms: _337  and  _340
REMARK  139  A    between atoms: _340  and  _341
REMARK  140  A    between atoms: _344  and  _346
REMARK  141  A    between atoms: _346  and  _347
REMARK  142  A    between atoms: _346  and  _349
REMARK  143  A    between atoms: _349  and  _350
REMARK  144  A    between atoms: _353  and  _355
REMARK  145  A    between atoms: _355  and  _356
REMARK  146  A    between atoms: _355  and  _358
REMARK  147  A    between atoms: _358  and  _359
REMARK  148  A    between atoms: _362  and  _364
REMARK  149  A    between atoms: _364  and  _365
REMARK  150  A    between atoms: _367  and  _369
REMARK  151  A    between atoms: _369  and  _370
REMARK  152  A    between atoms: _373  and  _375
REMARK  153  A    between atoms: _375  and  _376
REMARK  154  A    between atoms: _375  and  _378
REMARK  155  A    between atoms: _378  and  _379
REMARK  156  A    between atoms: _382  and  _384
REMARK  157  A    between atoms: _384  and  _385
REMARK  158  A    between atoms: _384  and  _387
REMARK  159  A    between atoms: _387  and  _388
REMARK  160  A    between atoms: _391  and  _393
REMARK  161  A    between atoms: _393  and  _394
REMARK  162  A    between atoms: _393  and  _396
REMARK  163  A    between atoms: _396  and  _397
REMARK  164  A    between atoms: _400  and  _402
REMARK  165  A    between atoms: _402  and  _403
REMARK  166  A    between atoms: _402  and  _405
REMARK  167  A    between atoms: _408  and  _410
REMARK  168  A    between atoms: _410  and  _411
REMARK  169  A    between atoms: _410  and  _413
REMARK  170  A    between atoms: _413  and  _414
REMARK  171  A    between atoms: _417  and  _419
REMARK  172  A    between atoms: _419  and  _420
REMARK  173  A    between atoms: _422  and  _424
REMARK  174  A    between atoms: _424  and  _425
REMARK  175  A    between atoms: _429  and  _430
REMARK  176  A    between atoms: _429  and  _432
REMARK  177  A    between atoms: _432  and  _433
REMARK  178  A    between atoms: _436  and  _438
REMARK  179  A    between atoms: _438  and  _439
REMARK  180  A    between atoms: _441  and  _443
REMARK  181  A    between atoms: _443  and  _444
REMARK  182  A    between atoms: _446  and  _448
REMARK  183  A    between atoms: _448  and  _449
REMARK  184  A    between atoms: _448  and  _451
REMARK  185  A    between atoms: _451  and  _452
REMARK  186  A    between atoms: _458  and  _460
REMARK  187  A    between atoms: _460  and  _461
REMARK  188  A    between atoms: _460  and  _463
REMARK  189  A    between atoms: _463  and  _464
REMARK  190  A    between atoms: _467  and  _469
REMARK  191  A    between atoms: _469  and  _470
REMARK  192  A    between atoms: _469  and  _472
REMARK  193  A    between atoms: _472  and  _473
REMARK  194  A    between atoms: _476  and  _478
REMARK  195  A    between atoms: _478  and  _479
REMARK  196  A    between atoms: _478  and  _481
REMARK  197  A    between atoms: _481  and  _482
REMARK  198  A    between atoms: _486  and  _487
REMARK  199  A    between atoms: _492  and  _494
REMARK  200  A    between atoms: _494  and  _495
REMARK  201  A    between atoms: _494  and  _497
REMARK  202  A    between atoms: _500  and  _502
REMARK  203  A    between atoms: _502  and  _503
REMARK  204  A    between atoms: _502  and  _505
REMARK  205  A    between atoms: _505  and  _506
REMARK  206  A    between atoms: _511  and  _513
REMARK  207  A    between atoms: _513  and  _514
REMARK  208  A    between atoms: _513  and  _516
REMARK  209  A    between atoms: _516  and  _517
REMARK  210  A    between atoms: _520  and  _522
REMARK  211  A    between atoms: _522  and  _523
REMARK  212  A    between atoms: _525  and  _527
REMARK  213  A    between atoms: _527  and  _528
REMARK  214  A    between atoms: _527  and  _530
REMARK  215  A    between atoms: _530  and  _531
REMARK  216  A    between atoms: _531  and  _532
REMARK  217  A    between atoms: _532  and  _533
REMARK                            x       y       z     vdW  Elec       q    Type
REMARK                         _______ _______ _______ _____ _____    ______ ____
ROOT
ATOM      1  C   GLY A   5       7.963  20.488   5.578  0.00  0.00    +0.243 C 
ATOM      2  N   ILE A   6       9.200  20.078   5.371  0.00  0.00    -0.297 N 
ATOM      3  H   ILE A   6      10.012  20.696   5.572  0.00  0.00    +0.150 HD
ATOM      4  O   GLY A   5       6.951  19.851   5.295  0.00  0.00    -0.273 OA
ENDROOT
BRANCH   2   5
ATOM      5  CA  ILE A   6       9.397  18.688   4.835  0.00  0.00    +0.149 C 
BRANCH   5   6
ATOM      6  C   ILE A   6       9.094  17.791   6.046  0.00  0.00    +0.241 C 
ATOM      7  O   ILE A   6       9.508  18.122   7.174  0.00  0.00    -0.273 OA
ATOM      8  N   GLY A   7       8.275  16.785   5.858  0.00  0.00    -0.295 N 
ATOM      9  H   GLY A   7       7.878  16.589   4.917  0.00  0.00    +0.150 HD
BRANCH   8  10
ATOM     10  CA  GLY A   7       7.930  15.935   7.021  0.00  0.00    +0.176 C 
BRANCH  10  11
ATOM     11  C   GLY A   7       6.565  16.232   7.564  0.00  0.00    +0.243 C 
ATOM     12  O   GLY A   7       5.997  15.421   8.293  0.00  0.00    -0.273 OA
ATOM     13  N   GLY A   8       5.970  17.403   7.231  0.00  0.00    -0.295 N 
ATOM     14  H   GLY A   8       6.445  18.083   6.604  0.00  0.00    +0.150 HD
BRANCH  13  15
ATOM     15  CA  GLY A   8       4.630  17.689   7.781  0.00  0.00    +0.176 C 
BRANCH  15  16
ATOM     16  C   GLY A   8       4.591  18.981   8.571  0.00  0.00    +0.243 C 
ATOM     17  N   PHE A   9       3.635  19.132   9.480  0.00  0.00    -0.297 N 
ATOM     18  H   PHE A   9       2.981  18.346   9.670  0.00  0.00    +0.150 HD
ATOM     19  O   GLY A   8       5.439  19.867   8.366  0.00  0.00    -0.273 OA
BRANCH  17  20
ATOM     20  CA  PHE A   9       3.486  20.392  10.223  0.00  0.00    +0.153 C 
BRANCH  20  21
ATOM     21  C   PHE A   9       3.865  20.237  11.687  0.00  0.00    +0.241 C 
ATOM     22  N   ILE A  10       4.217  21.345  12.325  0.00  0.00    -0.298 N 
ATOM     23  H   ILE A  10       4.307  22.232  11.789  0.00  0.00    +0.150 HD
ATOM     24  O   PHE A   9       3.795  19.152  12.250  0.00  0.00    -0.273 OA
BRANCH  22  25
ATOM     25  CA  ILE A  10       4.482  21.351  13.764  0.00  0.00    +0.137 C 
BRANCH  25  26
ATOM     26  C   ILE A  10       3.745  22.538  14.405  0.00  0.00    +0.227 C 
ATOM     27  O   ILE A  10       3.484  23.555  13.738  0.00  0.00    -0.286 OA
ENDBRANCH  25  26
BRANCH  25  28
ATOM     28  CB  ILE A  10       5.959  21.400  14.116  0.00  0.00    +0.026 C 
ATOM     29  CG2 ILE A  10       6.643  20.084  13.781  0.00  0.00    +0.002 C 
BRANCH  28  30
ATOM     30  CG1 ILE A  10       6.755  22.569  13.514  0.00  0.00    +0.002 C 
ATOM     31  CD1 ILE A  10       8.148  22.710  14.113  0.00  0.00    +0.000 C 
ENDBRANCH  28  30
ENDBRANCH  25  28
ENDBRANCH  22  25
ENDBRANCH  20  21
BRANCH  20  32
ATOM     32  CB  PHE A   9       1.995  20.805  10.171  0.00  0.00    +0.055 C 
BRANCH  32  33
ATOM     33  CG  PHE A   9       1.574  21.410   8.846  0.00  0.00    -0.020 A 
ATOM     34  CD2 PHE A   9       1.291  22.770   8.772  0.00  0.00    -0.004 A 
ATOM     35  CE2 PHE A   9       0.871  23.336   7.583  0.00  0.00    -0.000 A 
ATOM     36  CZ  PHE A   9       0.744  22.556   6.449  0.00  0.00    -0.000 A 
ATOM     37  CE1 PHE A   9       1.033  21.206   6.517  0.00  0.00    -0.000 A 
ATOM     38  CD1 PHE A   9       1.445  20.639   7.712  0.00  0.00    -0.004 A 
ENDBRANCH  32  33
ENDBRANCH  20  32
ENDBRANCH  17  20
ENDBRANCH  15  16
ENDBRANCH  13  15
ENDBRANCH  10  11
ENDBRANCH   8  10
ENDBRANCH   5   6
BRANCH   5  39
ATOM     39  CB  ILE A   6      10.884  18.576   4.456  0.00  0.00    +0.027 C 
ATOM     40  CG2 ILE A   6      11.409  17.173   4.489  0.00  0.00    +0.002 C 
BRANCH  39  41
ATOM     41  CG1 ILE A   6      11.205  19.297   3.136  0.00  0.00    +0.002 C 
ATOM     42  CD1 ILE A   6      10.990  18.414   1.928  0.00  0.00    +0.000 C 
ENDBRANCH  39  41
ENDBRANCH   5  39
ENDBRANCH   2   5
BRANCH   1  43
ATOM     43  CA  GLY A   5       7.852  21.857   6.259  0.00  0.00    +0.176 C 
BRANCH  43  45
ATOM     44  C   GLY A   4       5.957  23.214   6.938  0.00  0.00    +0.243 C 
ATOM     45  N   GLY A   5       6.520  22.003   6.809  0.00  0.00    -0.295 N 
ATOM     46  H   GLY A   5       5.993  21.158   7.108  0.00  0.00    +0.150 HD
ATOM     47  O   GLY A   4       6.551  24.242   6.626  0.00  0.00    -0.273 OA
BRANCH  44  48
ATOM     48  CA  GLY A   4       4.548  23.202   7.461  0.00  0.00    +0.176 C 
BRANCH  48  51
ATOM     49  C   ILE A   3       4.190  24.346   9.570  0.00  0.00    +0.241 C 
ATOM     50  O   ILE A   3       4.522  23.412  10.272  0.00  0.00    -0.273 OA
ATOM     51  N   GLY A   4       4.183  24.323   8.255  0.00  0.00    -0.295 N 
ATOM     52  H   GLY A   4       3.889  25.189   7.760  0.00  0.00    +0.150 HD
BRANCH  49  53
ATOM     53  CA  ILE A   3       3.736  25.681  10.201  0.00  0.00    +0.149 C 
BRANCH  53  55
ATOM     54  C   MET A   2       1.719  25.849  11.469  0.00  0.00    +0.241 C 
ATOM     55  N   ILE A   3       2.952  25.379  11.416  0.00  0.00    -0.297 N 
ATOM     56  H   ILE A   3       3.354  24.820  12.196  0.00  0.00    +0.150 HD
ATOM     57  O   MET A   2       1.213  26.580  10.621  0.00  0.00    -0.273 OA
BRANCH  54  58
ATOM     58  CA  MET A   2       0.879  25.456  12.693  0.00  0.00    +0.149 C 
BRANCH  58  61
ATOM     59  C   LYS A   1       0.637  27.046  14.491  0.00  0.00    +0.238 C 
ATOM     60  O   LYS A   1       1.296  26.360  15.240  0.00  0.00    -0.274 OA
ATOM     61  N   MET A   2       0.320  26.716  13.251  0.00  0.00    -0.297 N 
ATOM     62  H   MET A   2      -0.304  27.322  12.681  0.00  0.00    +0.150 HD
BRANCH  59  63
ATOM     63  CA  LYS A   1       0.146  28.438  14.959  0.00  0.00    +0.145 C 
BRANCH  63  64
ATOM     64  N   LYS A   1       0.235  28.452  16.443  0.00  0.00    -0.238 NA
ATOM     65  H   LYS A   1       0.986  27.928  16.935  0.00  0.00    +0.142 HD
ENDBRANCH  63  64
BRANCH  63  66
ATOM     66  CB  LYS A   1       1.136  29.501  14.446  0.00  0.00    +0.026 C 
BRANCH  66  67
ATOM     67  CG  LYS A   1       1.018  29.851  12.979  0.00  0.00    -0.000 C 
BRANCH  67  68
ATOM     68  CD  LYS A   1       2.163  30.798  12.587  0.00  0.00    -0.024 C 
BRANCH  68  69
ATOM     69  CE  LYS A   1       1.877  31.495  11.274  0.00  0.00    -0.086 C 
BRANCH  69  70
ATOM     70  NZ  LYS A   1       3.066  32.295  10.824  0.00  0.00    +0.380 N 
ATOM     71  HZ1 LYS A   1       3.292  33.012  11.542  0.00  0.00    -0.089 HD
ATOM     72  HZ2 LYS A   1       3.881  31.661  10.697  0.00  0.00    -0.089 HD
ATOM     73  HZ3 LYS A   1       2.846  32.763   9.922  0.00  0.00    -0.089 HD
ENDBRANCH  69  70
ENDBRANCH  68  69
ENDBRANCH  67  68
ENDBRANCH  66  67
ENDBRANCH  63  66
ENDBRANCH  59  63
ENDBRANCH  58  61
BRANCH  58  74
ATOM     74  CB  MET A   2      -0.277  24.593  12.167  0.00  0.00    +0.041 C 
BRANCH  74  75
ATOM     75  CG  MET A   2      -1.127  24.009  13.293  0.00  0.00    +0.060 C 
BRANCH  75  76
ATOM     76  SD  MET A   2      -0.386  22.546  13.994  0.00  0.00    -0.139 S 
ATOM     77  CE  MET A   2      -0.717  21.342  12.682  0.00  0.00    +0.069 C 
ENDBRANCH  75  76
ENDBRANCH  74  75
ENDBRANCH  58  74
ENDBRANCH  54  58
ENDBRANCH  53  55
BRANCH  53  78
ATOM     78  CB  ILE A   3       4.951  26.535  10.502  0.00  0.00    +0.027 C 
ATOM     79  CG2 ILE A   3       4.521  27.914  11.027  0.00  0.00    +0.002 C 
BRANCH  78  80
ATOM     80  CG1 ILE A   3       5.949  25.899  11.466  0.00  0.00    +0.002 C 
ATOM     81  CD1 ILE A   3       7.187  26.729  11.662  0.00  0.00    +0.000 C 
ENDBRANCH  78  80
ENDBRANCH  53  78
ENDBRANCH  49  53
ENDBRANCH  48  51
ENDBRANCH  44  48
ENDBRANCH  43  45
ENDBRANCH   1  43
TORSDOF 36
REMARK  Name = ../refined-set-2016/1d4y/1d4y_pocket.pdb
REMARK  217 active torsions:
REMARK  status: ('A' for Active; 'I' for Inactive)
REMARK    1  A    between atoms: _1  and  _3
REMARK    2  A    between atoms: _3  and  _4
REMARK    3  A    between atoms: _3  and  _6
REMARK    4  A    between atoms: _6  and  _7
REMARK    5  A    between atoms: _7  and  _8
REMARK    6  A    between atoms: _8  and  _9
REMARK    7  A    between atoms: _18  and  _20
REMARK    8  A    between atoms: _20  and  _21
REMARK    9  A    between atoms: _20  and  _23
REMARK   10  A    between atoms: _23  and  _24
REMARK   11  A    between atoms: _27  and  _29
REMARK   12  A    between atoms: _29  and  _30
REMARK   13  A    between atoms: _29  and  _32
REMARK   14  A    between atoms: _32  and  _33
REMARK   15  A    between atoms: _36  and  _38
REMARK   16  A    between atoms: _38  and  _39
REMARK   17  A    between atoms: _38  and  _41
REMARK   18  A    between atoms: _41  and  _42
REMARK   19  A    between atoms: _45  and  _47
REMARK   20  A    between atoms: _47  and  _48
REMARK   21  A    between atoms: _47  and  _50
REMARK   22  A    between atoms: _50  and  _51
REMARK   23  A    between atoms: _54  and  _56
REMARK   24  A    between atoms: _56  and  _57
REMARK   25  A    between atoms: _56  and  _59
REMARK   26  A    between atoms: _59  and  _60
REMARK   27  A    between atoms: _63  and  _65
REMARK   28  A    between atoms: _65  and  _66
REMARK   29  A    between atoms: _68  and  _70
REMARK   30  A    between atoms: _70  and  _71
REMARK   31  A    between atoms: _74  and  _76
REMARK   32  A    between atoms: _76  and  _77
REMARK   33  A    between atoms: _76  and  _79
REMARK   34  A    between atoms: _79  and  _80
REMARK   35  A    between atoms: _83  and  _85
REMARK   36  A    between atoms: _85  and  _86
REMARK   37  A    between atoms: _85  and  _88
REMARK   38  A    between atoms: _88  and  _89
REMARK   39  A    between atoms: _92  and  _94
REMARK   40  A    between atoms: _94  and  _95
REMARK   41  A    between atoms: _94  and  _97
REMARK   42  A    between atoms: _97  and  _98
REMARK   43  A    between atoms: _101  and  _103
REMARK   44  A    between atoms: _103  and  _104
REMARK   45  A    between atoms: _103  and  _106
REMARK   46  A    between atoms: _109  and  _111
REMARK   47  A    between atoms: _111  and  _112
REMARK   48  A    between atoms: _111  and  _114
REMARK   49  A    between atoms: _114  and  _115
REMARK   50  A    between atoms: _115  and  _116
REMARK   51  A    between atoms: _116  and  _117
REMARK   52  A    between atoms: _117  and  _118
REMARK   53  A    between atoms: _122  and  _124
REMARK   54  A    between atoms: _124  and  _125
REMARK   55  A    between atoms: _124  and  _127
REMARK   56  A    between atoms: _127  and  _128
REMARK   57  A    between atoms: _128  and  _129
REMARK   58  A    between atoms: _131  and  _133
REMARK   59  A    between atoms: _133  and  _134
REMARK   60  A    between atoms: _133  and  _136
REMARK   61  A    between atoms: _136  and  _137
REMARK   62  A    between atoms: _140  and  _142
REMARK   63  A    between atoms: _142  and  _143
REMARK   64  A    between atoms: _145  and  _147
REMARK   65  A    between atoms: _147  and  _148
REMARK   66  A    between atoms: _150  and  _152
REMARK   67  A    between atoms: _152  and  _153
REMARK   68  A    between atoms: _152  and  _155
REMARK   69  A    between atoms: _155  and  _156
REMARK   70  A    between atoms: _159  and  _161
REMARK   71  A    between atoms: _161  and  _162
REMARK   72  A    between atoms: _164  and  _166
REMARK   73  A    between atoms: _166  and  _167
REMARK   74  A    between atoms: _169  and  _171
REMARK   75  A    between atoms: _171  and  _172
REMARK   76  A    between atoms: _171  and  _174
REMARK   77  A    between atoms: _174  and  _175
REMARK   78  A    between atoms: _181  and  _183
REMARK   79  A    between atoms: _183  and  _184
REMARK   80  A    between atoms: _183  and  _186
REMARK   81  A    between atoms: _186  and  _187
REMARK   82  A    between atoms: _190  and  _192
REMARK   83  A    between atoms: _192  and  _193
REMARK   84  A    between atoms: _192  and  _195
REMARK   85  A    between atoms: _198  and  _200
REMARK   86  A    between atoms: _200  and  _201
REMARK   87  A    between atoms: _200  and  _203
REMARK   88  A    between atoms: _203  and  _204
REMARK   89  A    between atoms: _207  and  _209
REMARK   90  A    between atoms: _209  and  _210
REMARK   91  A    between atoms: _209  and  _212
REMARK   92  A    between atoms: _212  and  _213
REMARK   93  A    between atoms: _217  and  _218
REMARK   94  A    between atoms: _223  and  _225
REMARK   95  A    between atoms: _225  and  _226
REMARK   96  A    between atoms: _225  and  _228
REMARK   97  A    between atoms: _231  and  _233
REMARK   98  A    between atoms: _233  and  _234
REMARK   99  A    between atoms: _233  and  _236
REMARK  100  A    between atoms: _236  and  _237
REMARK  101  A    between atoms: _242  and  _244
REMARK  102  A    between atoms: _244  and  _245
REMARK  103  A    between atoms: _244  and  _247
REMARK  104  A    between atoms: _247  and  _248
REMARK  105  A    between atoms: _251  and  _253
REMARK  106  A    between atoms: _253  and  _254
REMARK  107  A    between atoms: _253  and  _256
REMARK  108  A    between atoms: _256  and  _257
REMARK  109  A    between atoms: _260  and  _262
REMARK  110  A    between atoms: _262  and  _263
REMARK  111  A    between atoms: _265  and  _267
REMARK  112  A    between atoms: _267  and  _268
REMARK  113  A    between atoms: _267  and  _270
REMARK  114  A    between atoms: _270  and  _271
REMARK  115  A    between atoms: _271  and  _272
REMARK  116  A    between atoms: _272  and  _273
REMARK  117  A    between atoms: _282  and  _284
REMARK  118  A    between atoms: _284  and  _285
REMARK  119  A    between atoms: _284  and  _287
REMARK  120  A    between atoms: _287  and  _288
REMARK  121  A    between atoms: _293  and  _295
REMARK  122  A    between atoms: _295  and  _296
REMARK  123  A    between atoms: _295  and  _298
REMARK  124  A    between atoms: _298  and  _299
REMARK  125  A    between atoms: _299  and  _300
REMARK  126  A    between atoms: _300  and  _301
REMARK  127  A    between atoms: _311  and  _312
REMARK  128  A    between atoms: _317  and  _319
REMARK  129  A    between atoms: _319  and  _320
REMARK  130  A    between atoms: _319  and  _322
REMARK  131  A    between atoms: _322  and  _323
REMARK  132  A    between atoms: _326  and  _328
REMARK  133  A    between atoms: _328  and  _329
REMARK  134  A    between atoms: _328  and  _331
REMARK  135  A    between atoms: _331  and  _332
REMARK  136  A    between atoms: _335  and  _337
REMARK  137  A    between atoms: _337  and  _338
REMARK  138  A    between atoms: _337  and  _340
REMARK  139  A    between atoms: _340  and  _341
REMARK  140  A    between atoms: _344  and  _346
REMARK  141  A    between atoms: _346  and  _347
REMARK  142  A    between atoms: _346  and  _349
REMARK  143  A    between atoms: _349  and  _350
REMARK  144  A    between atoms: _353  and  _355
REMARK  145  A    between atoms: _355  and  _356
REMARK  146  A    between atoms: _355  and  _358
REMARK  147  A    between atoms: _358  and  _359
REMARK  148  A    between atoms: _362  and  _364
REMARK  149  A    between atoms: _364  and  _365
REMARK  150  A    between atoms: _367  and  _369
REMARK  151  A    between atoms: _369  and  _370
REMARK  152  A    between atoms: _373  and  _375
REMARK  153  A    between atoms: _375  and  _376
REMARK  154  A    between atoms: _375  and  _378
REMARK  155  A    between atoms: _378  and  _379
REMARK  156  A    between atoms: _382  and  _384
REMARK  157  A    between atoms: _384  and  _385
REMARK  158  A    between atoms: _384  and  _387
REMARK  159  A    between atoms: _387  and  _388
REMARK  160  A    between atoms: _391  and  _393
REMARK  161  A    between atoms: _393  and  _394
REMARK  162  A    between atoms: _393  and  _396
REMARK  163  A    between atoms: _396  and  _397
REMARK  164  A    between atoms: _400  and  _402
REMARK  165  A    between atoms: _402  and  _403
REMARK  166  A    between atoms: _402  and  _405
REMARK  167  A    between atoms: _408  and  _410
REMARK  168  A    between atoms: _410  and  _411
REMARK  169  A    between atoms: _410  and  _413
REMARK  170  A    between atoms: _413  and  _414
REMARK  171  A    between atoms: _417  and  _419
REMARK  172  A    between atoms: _419  and  _420
REMARK  173  A    between atoms: _422  and  _424
REMARK  174  A    between atoms: _424  and  _425
REMARK  175  A    between atoms: _429  and  _430
REMARK  176  A    between atoms: _429  and  _432
REMARK  177  A    between atoms: _432  and  _433
REMARK  178  A    between atoms: _436  and  _438
REMARK  179  A    between atoms: _438  and  _439
REMARK  180  A    between atoms: _441  and  _443
REMARK  181  A    between atoms: _443  and  _444
REMARK  182  A    between atoms: _446  and  _448
REMARK  183  A    between atoms: _448  and  _449
REMARK  184  A    between atoms: _448  and  _451
REMARK  185  A    between atoms: _451  and  _452
REMARK  186  A    between atoms: _458  and  _460
REMARK  187  A    between atoms: _460  and  _461
REMARK  188  A    between atoms: _460  and  _463
REMARK  189  A    between atoms: _463  and  _464
REMARK  190  A    between atoms: _467  and  _469
REMARK  191  A    between atoms: _469  and  _470
REMARK  192  A    between atoms: _469  and  _472
REMARK  193  A    between atoms: _472  and  _473
REMARK  194  A    between atoms: _476  and  _478
REMARK  195  A    between atoms: _478  and  _479
REMARK  196  A    between atoms: _478  and  _481
REMARK  197  A    between atoms: _481  and  _482
REMARK  198  A    between atoms: _486  and  _487
REMARK  199  A    between atoms: _492  and  _494
REMARK  200  A    between atoms: _494  and  _495
REMARK  201  A    between atoms: _494  and  _497
REMARK  202  A    between atoms: _500  and  _502
REMARK  203  A    between atoms: _502  and  _503
REMARK  204  A    between atoms: _502  and  _505
REMARK  205  A    between atoms: _505  and  _506
REMARK  206  A    between atoms: _511  and  _513
REMARK  207  A    between atoms: _513  and  _514
REMARK  208  A    between atoms: _513  and  _516
REMARK  209  A    between atoms: _516  and  _517
REMARK  210  A    between atoms: _520  and  _522
REMARK  211  A    between atoms: _522  and  _523
REMARK  212  A    between atoms: _525  and  _527
REMARK  213  A    between atoms: _527  and  _528
REMARK  214  A    between atoms: _527  and  _530
REMARK  215  A    between atoms: _530  and  _531
REMARK  216  A    between atoms: _531  and  _532
REMARK  217  A    between atoms: _532  and  _533
REMARK                            x       y       z     vdW  Elec       q    Type
REMARK                         _______ _______ _______ _____ _____    ______ ____
ROOT
ATOM      1  CA  VAL A   1       4.627  26.478  17.495  0.00  0.00    +0.133 C 
ENDROOT
BRANCH   1   2
ATOM      2  CB  VAL A   1       5.510  27.085  16.382  0.00  0.00    +0.023 C 
ATOM      3  CG2 VAL A   1       6.397  26.043  15.739  0.00  0.00    +0.002 C 
ATOM      4  CG1 VAL A   1       4.667  27.797  15.339  0.00  0.00    +0.002 C 
ENDBRANCH   1   2
BRANCH   1   5
ATOM      5  N   VAL A   1       3.595  25.605  16.886  0.00  0.00    -0.239 NA
ATOM      6  H   VAL A   1       2.820  26.013  16.325  0.00  0.00    +0.142 HD
ENDBRANCH   1   5
BRANCH   1   7
ATOM      7  C   VAL A   1       3.908  27.637  18.212  0.00  0.00    +0.224 C 
ATOM      8  O   VAL A   1       2.717  27.859  18.000  0.00  0.00    -0.287 OA
ENDBRANCH   1   7
TORSDOF 3
REMARK  Name = ../refined-set-2016/1d4y/1d4y_pocket.pdb
REMARK  217 active torsions:
REMARK  status: ('A' for Active; 'I' for Inactive)
REMARK    1  A    between atoms: _1  and  _3
REMARK    2  A    between atoms: _3  and  _4
REMARK    3  A    between atoms: _3  and  _6
REMARK    4  A    between atoms: _6  and  _7
REMARK    5  A    between atoms: _7  and  _8
REMARK    6  A    between atoms: _8  and  _9
REMARK    7  A    between atoms: _18  and  _20
REMARK    8  A    between atoms: _20  and  _21
REMARK    9  A    between atoms: _20  and  _23
REMARK   10  A    between atoms: _23  and  _24
REMARK   11  A    between atoms: _27  and  _29
REMARK   12  A    between atoms: _29  and  _30
REMARK   13  A    between atoms: _29  and  _32
REMARK   14  A    between atoms: _32  and  _33
REMARK   15  A    between atoms: _36  and  _38
REMARK   16  A    between atoms: _38  and  _39
REMARK   17  A    between atoms: _38  and  _41
REMARK   18  A    between atoms: _41  and  _42
REMARK   19  A    between atoms: _45  and  _47
REMARK   20  A    between atoms: _47  and  _48
REMARK   21  A    between atoms: _47  and  _50
REMARK   22  A    between atoms: _50  and  _51
REMARK   23  A    between atoms: _54  and  _56
REMARK   24  A    between atoms: _56  and  _57
REMARK   25  A    between atoms: _56  and  _59
REMARK   26  A    between atoms: _59  and  _60
REMARK   27  A    between atoms: _63  and  _65
REMARK   28  A    between atoms: _65  and  _66
REMARK   29  A    between atoms: _68  and  _70
REMARK   30  A    between atoms: _70  and  _71
REMARK   31  A    between atoms: _74  and  _76
REMARK   32  A    between atoms: _76  and  _77
REMARK   33  A    between atoms: _76  and  _79
REMARK   34  A    between atoms: _79  and  _80
REMARK   35  A    between atoms: _83  and  _85
REMARK   36  A    between atoms: _85  and  _86
REMARK   37  A    between atoms: _85  and  _88
REMARK   38  A    between atoms: _88  and  _89
REMARK   39  A    between atoms: _92  and  _94
REMARK   40  A    between atoms: _94  and  _95
REMARK   41  A    between atoms: _94  and  _97
REMARK   42  A    between atoms: _97  and  _98
REMARK   43  A    between atoms: _101  and  _103
REMARK   44  A    between atoms: _103  and  _104
REMARK   45  A    between atoms: _103  and  _106
REMARK   46  A    between atoms: _109  and  _111
REMARK   47  A    between atoms: _111  and  _112
REMARK   48  A    between atoms: _111  and  _114
REMARK   49  A    between atoms: _114  and  _115
REMARK   50  A    between atoms: _115  and  _116
REMARK   51  A    between atoms: _116  and  _117
REMARK   52  A    between atoms: _117  and  _118
REMARK   53  A    between atoms: _122  and  _124
REMARK   54  A    between atoms: _124  and  _125
REMARK   55  A    between atoms: _124  and  _127
REMARK   56  A    between atoms: _127  and  _128
REMARK   57  A    between atoms: _128  and  _129
REMARK   58  A    between atoms: _131  and  _133
REMARK   59  A    between atoms: _133  and  _134
REMARK   60  A    between atoms: _133  and  _136
REMARK   61  A    between atoms: _136  and  _137
REMARK   62  A    between atoms: _140  and  _142
REMARK   63  A    between atoms: _142  and  _143
REMARK   64  A    between atoms: _145  and  _147
REMARK   65  A    between atoms: _147  and  _148
REMARK   66  A    between atoms: _150  and  _152
REMARK   67  A    between atoms: _152  and  _153
REMARK   68  A    between atoms: _152  and  _155
REMARK   69  A    between atoms: _155  and  _156
REMARK   70  A    between atoms: _159  and  _161
REMARK   71  A    between atoms: _161  and  _162
REMARK   72  A    between atoms: _164  and  _166
REMARK   73  A    between atoms: _166  and  _167
REMARK   74  A    between atoms: _169  and  _171
REMARK   75  A    between atoms: _171  and  _172
REMARK   76  A    between atoms: _171  and  _174
REMARK   77  A    between atoms: _174  and  _175
REMARK   78  A    between atoms: _181  and  _183
REMARK   79  A    between atoms: _183  and  _184
REMARK   80  A    between atoms: _183  and  _186
REMARK   81  A    between atoms: _186  and  _187
REMARK   82  A    between atoms: _190  and  _192
REMARK   83  A    between atoms: _192  and  _193
REMARK   84  A    between atoms: _192  and  _195
REMARK   85  A    between atoms: _198  and  _200
REMARK   86  A    between atoms: _200  and  _201
REMARK   87  A    between atoms: _200  and  _203
REMARK   88  A    between atoms: _203  and  _204
REMARK   89  A    between atoms: _207  and  _209
REMARK   90  A    between atoms: _209  and  _210
REMARK   91  A    between atoms: _209  and  _212
REMARK   92  A    between atoms: _212  and  _213
REMARK   93  A    between atoms: _217  and  _218
REMARK   94  A    between atoms: _223  and  _225
REMARK   95  A    between atoms: _225  and  _226
REMARK   96  A    between atoms: _225  and  _228
REMARK   97  A    between atoms: _231  and  _233
REMARK   98  A    between atoms: _233  and  _234
REMARK   99  A    between atoms: _233  and  _236
REMARK  100  A    between atoms: _236  and  _237
REMARK  101  A    between atoms: _242  and  _244
REMARK  102  A    between atoms: _244  and  _245
REMARK  103  A    between atoms: _244  and  _247
REMARK  104  A    between atoms: _247  and  _248
REMARK  105  A    between atoms: _251  and  _253
REMARK  106  A    between atoms: _253  and  _254
REMARK  107  A    between atoms: _253  and  _256
REMARK  108  A    between atoms: _256  and  _257
REMARK  109  A    between atoms: _260  and  _262
REMARK  110  A    between atoms: _262  and  _263
REMARK  111  A    between atoms: _265  and  _267
REMARK  112  A    between atoms: _267  and  _268
REMARK  113  A    between atoms: _267  and  _270
REMARK  114  A    between atoms: _270  and  _271
REMARK  115  A    between atoms: _271  and  _272
REMARK  116  A    between atoms: _272  and  _273
REMARK  117  A    between atoms: _282  and  _284
REMARK  118  A    between atoms: _284  and  _285
REMARK  119  A    between atoms: _284  and  _287
REMARK  120  A    between atoms: _287  and  _288
REMARK  121  A    between atoms: _293  and  _295
REMARK  122  A    between atoms: _295  and  _296
REMARK  123  A    between atoms: _295  and  _298
REMARK  124  A    between atoms: _298  and  _299
REMARK  125  A    between atoms: _299  and  _300
REMARK  126  A    between atoms: _300  and  _301
REMARK  127  A    between atoms: _311  and  _312
REMARK  128  A    between atoms: _317  and  _319
REMARK  129  A    between atoms: _319  and  _320
REMARK  130  A    between atoms: _319  and  _322
REMARK  131  A    between atoms: _322  and  _323
REMARK  132  A    between atoms: _326  and  _328
REMARK  133  A    between atoms: _328  and  _329
REMARK  134  A    between atoms: _328  and  _331
REMARK  135  A    between atoms: _331  and  _332
REMARK  136  A    between atoms: _335  and  _337
REMARK  137  A    between atoms: _337  and  _338
REMARK  138  A    between atoms: _337  and  _340
REMARK  139  A    between atoms: _340  and  _341
REMARK  140  A    between atoms: _344  and  _346
REMARK  141  A    between atoms: _346  and  _347
REMARK  142  A    between atoms: _346  and  _349
REMARK  143  A    between atoms: _349  and  _350
REMARK  144  A    between atoms: _353  and  _355
REMARK  145  A    between atoms: _355  and  _356
REMARK  146  A    between atoms: _355  and  _358
REMARK  147  A    between atoms: _358  and  _359
REMARK  148  A    between atoms: _362  and  _364
REMARK  149  A    between atoms: _364  and  _365
REMARK  150  A    between atoms: _367  and  _369
REMARK  151  A    between atoms: _369  and  _370
REMARK  152  A    between atoms: _373  and  _375
REMARK  153  A    between atoms: _375  and  _376
REMARK  154  A    between atoms: _375  and  _378
REMARK  155  A    between atoms: _378  and  _379
REMARK  156  A    between atoms: _382  and  _384
REMARK  157  A    between atoms: _384  and  _385
REMARK  158  A    between atoms: _384  and  _387
REMARK  159  A    between atoms: _387  and  _388
REMARK  160  A    between atoms: _391  and  _393
REMARK  161  A    between atoms: _393  and  _394
REMARK  162  A    between atoms: _393  and  _396
REMARK  163  A    between atoms: _396  and  _397
REMARK  164  A    between atoms: _400  and  _402
REMARK  165  A    between atoms: _402  and  _403
REMARK  166  A    between atoms: _402  and  _405
REMARK  167  A    between atoms: _408  and  _410
REMARK  168  A    between atoms: _410  and  _411
REMARK  169  A    between atoms: _410  and  _413
REMARK  170  A    between atoms: _413  and  _414
REMARK  171  A    between atoms: _417  and  _419
REMARK  172  A    between atoms: _419  and  _420
REMARK  173  A    between atoms: _422  and  _424
REMARK  174  A    between atoms: _424  and  _425
REMARK  175  A    between atoms: _429  and  _430
REMARK  176  A    between atoms: _429  and  _432
REMARK  177  A    between atoms: _432  and  _433
REMARK  178  A    between atoms: _436  and  _438
REMARK  179  A    between atoms: _438  and  _439
REMARK  180  A    between atoms: _441  and  _443
REMARK  181  A    between atoms: _443  and  _444
REMARK  182  A    between atoms: _446  and  _448
REMARK  183  A    between atoms: _448  and  _449
REMARK  184  A    between atoms: _448  and  _451
REMARK  185  A    between atoms: _451  and  _452
REMARK  186  A    between atoms: _458  and  _460
REMARK  187  A    between atoms: _460  and  _461
REMARK  188  A    between atoms: _460  and  _463
REMARK  189  A    between atoms: _463  and  _464
REMARK  190  A    between atoms: _467  and  _469
REMARK  191  A    between atoms: _469  and  _470
REMARK  192  A    between atoms: _469  and  _472
REMARK  193  A    between atoms: _472  and  _473
REMARK  194  A    between atoms: _476  and  _478
REMARK  195  A    between atoms: _478  and  _479
REMARK  196  A    between atoms: _478  and  _481
REMARK  197  A    between atoms: _481  and  _482
REMARK  198  A    between atoms: _486  and  _487
REMARK  199  A    between atoms: _492  and  _494
REMARK  200  A    between atoms: _494  and  _495
REMARK  201  A    between atoms: _494  and  _497
REMARK  202  A    between atoms: _500  and  _502
REMARK  203  A    between atoms: _502  and  _503
REMARK  204  A    between atoms: _502  and  _505
REMARK  205  A    between atoms: _505  and  _506
REMARK  206  A    between atoms: _511  and  _513
REMARK  207  A    between atoms: _513  and  _514
REMARK  208  A    between atoms: _513  and  _516
REMARK  209  A    between atoms: _516  and  _517
REMARK  210  A    between atoms: _520  and  _522
REMARK  211  A    between atoms: _522  and  _523
REMARK  212  A    between atoms: _525  and  _527
REMARK  213  A    between atoms: _527  and  _528
REMARK  214  A    between atoms: _527  and  _530
REMARK  215  A    between atoms: _530  and  _531
REMARK  216  A    between atoms: _531  and  _532
REMARK  217  A    between atoms: _532  and  _533
REMARK                            x       y       z     vdW  Elec       q    Type
REMARK                         _______ _______ _______ _____ _____    ______ ____
ROOT
ATOM      1  CA  LEU A   1       8.056  31.026  16.273  0.00  0.00    +0.133 C 
ENDROOT
BRANCH   1   2
ATOM      2  N   LEU A   1       8.879  32.197  15.965  0.00  0.00    -0.239 NA
ATOM      3  H   LEU A   1       9.629  32.108  15.250  0.00  0.00    +0.142 HD
ENDBRANCH   1   2
BRANCH   1   4
ATOM      4  C   LEU A   1       8.923  30.079  17.134  0.00  0.00    +0.224 C 
ATOM      5  O   LEU A   1      10.097  29.883  16.832  0.00  0.00    -0.287 OA
ENDBRANCH   1   4
BRANCH   1   6
ATOM      6  CB  LEU A   1       7.672  30.306  14.964  0.00  0.00    +0.025 C 
BRANCH   6   7
ATOM      7  CG  LEU A   1       6.903  31.145  13.949  0.00  0.00    +0.002 C 
ATOM      8  CD2 LEU A   1       5.848  32.025  14.587  0.00  0.00    +0.000 C 
ATOM      9  CD1 LEU A   1       6.334  30.323  12.826  0.00  0.00    +0.000 C 
ENDBRANCH   6   7
ENDBRANCH   1   6
TORSDOF 4
REMARK  Name = ../refined-set-2016/1d4y/1d4y_pocket.pdb
REMARK  217 active torsions:
REMARK  status: ('A' for Active; 'I' for Inactive)
REMARK    1  A    between atoms: _1  and  _3
REMARK    2  A    between atoms: _3  and  _4
REMARK    3  A    between atoms: _3  and  _6
REMARK    4  A    between atoms: _6  and  _7
REMARK    5  A    between atoms: _7  and  _8
REMARK    6  A    between atoms: _8  and  _9
REMARK    7  A    between atoms: _18  and  _20
REMARK    8  A    between atoms: _20  and  _21
REMARK    9  A    between atoms: _20  and  _23
REMARK   10  A    between atoms: _23  and  _24
REMARK   11  A    between atoms: _27  and  _29
REMARK   12  A    between atoms: _29  and  _30
REMARK   13  A    between atoms: _29  and  _32
REMARK   14  A    between atoms: _32  and  _33
REMARK   15  A    between atoms: _36  and  _38
REMARK   16  A    between atoms: _38  and  _39
REMARK   17  A    between atoms: _38  and  _41
REMARK   18  A    between atoms: _41  and  _42
REMARK   19  A    between atoms: _45  and  _47
REMARK   20  A    between atoms: _47  and  _48
REMARK   21  A    between atoms: _47  and  _50
REMARK   22  A    between atoms: _50  and  _51
REMARK   23  A    between atoms: _54  and  _56
REMARK   24  A    between atoms: _56  and  _57
REMARK   25  A    between atoms: _56  and  _59
REMARK   26  A    between atoms: _59  and  _60
REMARK   27  A    between atoms: _63  and  _65
REMARK   28  A    between atoms: _65  and  _66
REMARK   29  A    between atoms: _68  and  _70
REMARK   30  A    between atoms: _70  and  _71
REMARK   31  A    between atoms: _74  and  _76
REMARK   32  A    between atoms: _76  and  _77
REMARK   33  A    between atoms: _76  and  _79
REMARK   34  A    between atoms: _79  and  _80
REMARK   35  A    between atoms: _83  and  _85
REMARK   36  A    between atoms: _85  and  _86
REMARK   37  A    between atoms: _85  and  _88
REMARK   38  A    between atoms: _88  and  _89
REMARK   39  A    between atoms: _92  and  _94
REMARK   40  A    between atoms: _94  and  _95
REMARK   41  A    between atoms: _94  and  _97
REMARK   42  A    between atoms: _97  and  _98
REMARK   43  A    between atoms: _101  and  _103
REMARK   44  A    between atoms: _103  and  _104
REMARK   45  A    between atoms: _103  and  _106
REMARK   46  A    between atoms: _109  and  _111
REMARK   47  A    between atoms: _111  and  _112
REMARK   48  A    between atoms: _111  and  _114
REMARK   49  A    between atoms: _114  and  _115
REMARK   50  A    between atoms: _115  and  _116
REMARK   51  A    between atoms: _116  and  _117
REMARK   52  A    between atoms: _117  and  _118
REMARK   53  A    between atoms: _122  and  _124
REMARK   54  A    between atoms: _124  and  _125
REMARK   55  A    between atoms: _124  and  _127
REMARK   56  A    between atoms: _127  and  _128
REMARK   57  A    between atoms: _128  and  _129
REMARK   58  A    between atoms: _131  and  _133
REMARK   59  A    between atoms: _133  and  _134
REMARK   60  A    between atoms: _133  and  _136
REMARK   61  A    between atoms: _136  and  _137
REMARK   62  A    between atoms: _140  and  _142
REMARK   63  A    between atoms: _142  and  _143
REMARK   64  A    between atoms: _145  and  _147
REMARK   65  A    between atoms: _147  and  _148
REMARK   66  A    between atoms: _150  and  _152
REMARK   67  A    between atoms: _152  and  _153
REMARK   68  A    between atoms: _152  and  _155
REMARK   69  A    between atoms: _155  and  _156
REMARK   70  A    between atoms: _159  and  _161
REMARK   71  A    between atoms: _161  and  _162
REMARK   72  A    between atoms: _164  and  _166
REMARK   73  A    between atoms: _166  and  _167
REMARK   74  A    between atoms: _169  and  _171
REMARK   75  A    between atoms: _171  and  _172
REMARK   76  A    between atoms: _171  and  _174
REMARK   77  A    between atoms: _174  and  _175
REMARK   78  A    between atoms: _181  and  _183
REMARK   79  A    between atoms: _183  and  _184
REMARK   80  A    between atoms: _183  and  _186
REMARK   81  A    between atoms: _186  and  _187
REMARK   82  A    between atoms: _190  and  _192
REMARK   83  A    between atoms: _192  and  _193
REMARK   84  A    between atoms: _192  and  _195
REMARK   85  A    between atoms: _198  and  _200
REMARK   86  A    between atoms: _200  and  _201
REMARK   87  A    between atoms: _200  and  _203
REMARK   88  A    between atoms: _203  and  _204
REMARK   89  A    between atoms: _207  and  _209
REMARK   90  A    between atoms: _209  and  _210
REMARK   91  A    between atoms: _209  and  _212
REMARK   92  A    between atoms: _212  and  _213
REMARK   93  A    between atoms: _217  and  _218
REMARK   94  A    between atoms: _223  and  _225
REMARK   95  A    between atoms: _225  and  _226
REMARK   96  A    between atoms: _225  and  _228
REMARK   97  A    between atoms: _231  and  _233
REMARK   98  A    between atoms: _233  and  _234
REMARK   99  A    between atoms: _233  and  _236
REMARK  100  A    between atoms: _236  and  _237
REMARK  101  A    between atoms: _242  and  _244
REMARK  102  A    between atoms: _244  and  _245
REMARK  103  A    between atoms: _244  and  _247
REMARK  104  A    between atoms: _247  and  _248
REMARK  105  A    between atoms: _251  and  _253
REMARK  106  A    between atoms: _253  and  _254
REMARK  107  A    between atoms: _253  and  _256
REMARK  108  A    between atoms: _256  and  _257
REMARK  109  A    between atoms: _260  and  _262
REMARK  110  A    between atoms: _262  and  _263
REMARK  111  A    between atoms: _265  and  _267
REMARK  112  A    between atoms: _267  and  _268
REMARK  113  A    between atoms: _267  and  _270
REMARK  114  A    between atoms: _270  and  _271
REMARK  115  A    between atoms: _271  and  _272
REMARK  116  A    between atoms: _272  and  _273
REMARK  117  A    between atoms: _282  and  _284
REMARK  118  A    between atoms: _284  and  _285
REMARK  119  A    between atoms: _284  and  _287
REMARK  120  A    between atoms: _287  and  _288
REMARK  121  A    between atoms: _293  and  _295
REMARK  122  A    between atoms: _295  and  _296
REMARK  123  A    between atoms: _295  and  _298
REMARK  124  A    between atoms: _298  and  _299
REMARK  125  A    between atoms: _299  and  _300
REMARK  126  A    between atoms: _300  and  _301
REMARK  127  A    between atoms: _311  and  _312
REMARK  128  A    between atoms: _317  and  _319
REMARK  129  A    between atoms: _319  and  _320
REMARK  130  A    between atoms: _319  and  _322
REMARK  131  A    between atoms: _322  and  _323
REMARK  132  A    between atoms: _326  and  _328
REMARK  133  A    between atoms: _328  and  _329
REMARK  134  A    between atoms: _328  and  _331
REMARK  135  A    between atoms: _331  and  _332
REMARK  136  A    between atoms: _335  and  _337
REMARK  137  A    between atoms: _337  and  _338
REMARK  138  A    between atoms: _337  and  _340
REMARK  139  A    between atoms: _340  and  _341
REMARK  140  A    between atoms: _344  and  _346
REMARK  141  A    between atoms: _346  and  _347
REMARK  142  A    between atoms: _346  and  _349
REMARK  143  A    between atoms: _349  and  _350
REMARK  144  A    between atoms: _353  and  _355
REMARK  145  A    between atoms: _355  and  _356
REMARK  146  A    between atoms: _355  and  _358
REMARK  147  A    between atoms: _358  and  _359
REMARK  148  A    between atoms: _362  and  _364
REMARK  149  A    between atoms: _364  and  _365
REMARK  150  A    between atoms: _367  and  _369
REMARK  151  A    between atoms: _369  and  _370
REMARK  152  A    between atoms: _373  and  _375
REMARK  153  A    between atoms: _375  and  _376
REMARK  154  A    between atoms: _375  and  _378
REMARK  155  A    between atoms: _378  and  _379
REMARK  156  A    between atoms: _382  and  _384
REMARK  157  A    between atoms: _384  and  _385
REMARK  158  A    between atoms: _384  and  _387
REMARK  159  A    between atoms: _387  and  _388
REMARK  160  A    between atoms: _391  and  _393
REMARK  161  A    between atoms: _393  and  _394
REMARK  162  A    between atoms: _393  and  _396
REMARK  163  A    between atoms: _396  and  _397
REMARK  164  A    between atoms: _400  and  _402
REMARK  165  A    between atoms: _402  and  _403
REMARK  166  A    between atoms: _402  and  _405
REMARK  167  A    between atoms: _408  and  _410
REMARK  168  A    between atoms: _410  and  _411
REMARK  169  A    between atoms: _410  and  _413
REMARK  170  A    between atoms: _413  and  _414
REMARK  171  A    between atoms: _417  and  _419
REMARK  172  A    between atoms: _419  and  _420
REMARK  173  A    between atoms: _422  and  _424
REMARK  174  A    between atoms: _424  and  _425
REMARK  175  A    between atoms: _429  and  _430
REMARK  176  A    between atoms: _429  and  _432
REMARK  177  A    between atoms: _432  and  _433
REMARK  178  A    between atoms: _436  and  _438
REMARK  179  A    between atoms: _438  and  _439
REMARK  180  A    between atoms: _441  and  _443
REMARK  181  A    between atoms: _443  and  _444
REMARK  182  A    between atoms: _446  and  _448
REMARK  183  A    between atoms: _448  and  _449
REMARK  184  A    between atoms: _448  and  _451
REMARK  185  A    between atoms: _451  and  _452
REMARK  186  A    between atoms: _458  and  _460
REMARK  187  A    between atoms: _460  and  _461
REMARK  188  A    between atoms: _460  and  _463
REMARK  189  A    between atoms: _463  and  _464
REMARK  190  A    between atoms: _467  and  _469
REMARK  191  A    between atoms: _469  and  _470
REMARK  192  A    between atoms: _469  and  _472
REMARK  193  A    between atoms: _472  and  _473
REMARK  194  A    between atoms: _476  and  _478
REMARK  195  A    between atoms: _478  and  _479
REMARK  196  A    between atoms: _478  and  _481
REMARK  197  A    between atoms: _481  and  _482
REMARK  198  A    between atoms: _486  and  _487
REMARK  199  A    between atoms: _492  and  _494
REMARK  200  A    between atoms: _494  and  _495
REMARK  201  A    between atoms: _494  and  _497
REMARK  202  A    between atoms: _500  and  _502
REMARK  203  A    between atoms: _502  and  _503
REMARK  204  A    between atoms: _502  and  _505
REMARK  205  A    between atoms: _505  and  _506
REMARK  206  A    between atoms: _511  and  _513
REMARK  207  A    between atoms: _513  and  _514
REMARK  208  A    between atoms: _513  and  _516
REMARK  209  A    between atoms: _516  and  _517
REMARK  210  A    between atoms: _520  and  _522
REMARK  211  A    between atoms: _522  and  _523
REMARK  212  A    between atoms: _525  and  _527
REMARK  213  A    between atoms: _527  and  _528
REMARK  214  A    between atoms: _527  and  _530
REMARK  215  A    between atoms: _530  and  _531
REMARK  216  A    between atoms: _531  and  _532
REMARK  217  A    between atoms: _532  and  _533
REMARK                            x       y       z     vdW  Elec       q    Type
REMARK                         _______ _______ _______ _____ _____    ______ ____
ROOT
ATOM      1  C   ILE A   5      15.921  29.985  11.572  0.00  0.00    +0.241 C 
ATOM      2  O   ILE A   5      14.909  30.449  12.090  0.00  0.00    -0.273 OA
ATOM      3  N   ILE A   6      16.788  30.731  10.889  0.00  0.00    -0.297 N 
ATOM      4  H   ILE A   6      17.673  30.307  10.546  0.00  0.00    +0.150 HD
ENDROOT
BRANCH   3   5
ATOM      5  CA  ILE A   6      16.509  32.135  10.618  0.00  0.00    +0.149 C 
BRANCH   5   6
ATOM      6  C   ILE A   6      15.947  32.190   9.190  0.00  0.00    +0.241 C 
ATOM      7  N   GLY A   7      14.701  32.601   9.051  0.00  0.00    -0.295 N 
ATOM      8  H   GLY A   7      14.167  32.884   9.897  0.00  0.00    +0.150 HD
ATOM      9  O   ILE A   6      16.644  31.800   8.267  0.00  0.00    -0.273 OA
BRANCH   7  10
ATOM     10  CA  GLY A   7      14.055  32.670   7.760  0.00  0.00    +0.176 C 
BRANCH  10  11
ATOM     11  C   GLY A   7      14.059  34.101   7.181  0.00  0.00    +0.243 C 
ATOM     12  O   GLY A   7      14.617  34.991   7.824  0.00  0.00    -0.273 OA
ATOM     13  N   ARG A   8      13.422  34.283   6.040  0.00  0.00    -0.297 N 
ATOM     14  H   ARG A   8      12.902  33.472   5.649  0.00  0.00    +0.150 HD
BRANCH  13  15
ATOM     15  CA  ARG A   8      13.387  35.523   5.284  0.00  0.00    +0.149 C 
BRANCH  15  16
ATOM     16  C   ARG A   8      12.913  36.727   6.064  0.00  0.00    +0.241 C 
ATOM     17  N   ASN A   9      11.980  36.517   6.986  0.00  0.00    -0.298 N 
ATOM     18  H   ASN A   9      11.634  35.547   7.132  0.00  0.00    +0.150 HD
ATOM     19  O   ARG A   8      13.372  37.856   5.849  0.00  0.00    -0.273 OA
BRANCH  17  20
ATOM     20  CA  ASN A   9      11.422  37.584   7.800  0.00  0.00    +0.146 C 
BRANCH  20  21
ATOM     21  C   ASN A   9      12.480  38.407   8.492  0.00  0.00    +0.227 C 
ATOM     22  O   ASN A   9      12.328  39.615   8.685  0.00  0.00    -0.286 OA
ENDBRANCH  20  21
BRANCH  20  23
ATOM     23  CB  ASN A   9      10.352  37.082   8.721  0.00  0.00    +0.112 C 
BRANCH  23  24
ATOM     24  CG  ASN A   9      10.869  36.410   9.982  0.00  0.00    +0.222 C 
ATOM     25  ND2 ASN A   9      10.465  36.953  11.137  0.00  0.00    -0.329 N 
ATOM     26 HD21 ASN A   9      10.777  36.545  12.041  0.00  0.00    +0.145 HD
ATOM     27 HD22 ASN A   9       9.839  37.783  11.130  0.00  0.00    +0.145 HD
ATOM     28  OD1 ASN A   9      11.607  35.431   9.932  0.00  0.00    -0.275 OA
ENDBRANCH  23  24
ENDBRANCH  20  23
ENDBRANCH  17  20
ENDBRANCH  15  16
BRANCH  15  29
ATOM     29  CB  ARG A   8      12.586  35.337   4.007  0.00  0.00    +0.033 C 
BRANCH  29  30
ATOM     30  CG  ARG A   8      13.017  34.152   3.166  0.00  0.00    +0.045 C 
BRANCH  30  31
ATOM     31  CD  ARG A   8      12.378  34.258   1.762  0.00  0.00    +0.174 C 
BRANCH  31  32
ATOM     32  NE  ARG A   8      10.966  33.818   1.878  0.00  0.00    -0.265 N 
ATOM     33  CZ  ARG A   8       9.960  34.662   1.946  0.00  0.00    +0.342 C 
ATOM     34  NH2 ARG A   8       8.718  34.228   2.067  0.00  0.00    -0.292 N 
ATOM     35 HH21 ARG A   8       7.932  34.908   2.120  0.00  0.00    +0.255 HD
ATOM     36 HH22 ARG A   8       8.526  33.207   2.110  0.00  0.00    +0.255 HD
ATOM     37  NH1 ARG A   8      10.215  35.984   1.871  0.00  0.00    -0.292 N 
ATOM     38 HH11 ARG A   8       9.433  36.668   1.923  0.00  0.00    +0.255 HD
ATOM     39 HH12 ARG A   8      11.193  36.319   1.761  0.00  0.00    +0.255 HD
ATOM     40  HE  ARG A   8      10.763  32.798   1.907  0.00  0.00    +0.259 HD
ENDBRANCH  31  32
ENDBRANCH  30  31
ENDBRANCH  29  30
ENDBRANCH  15  29
ENDBRANCH  13  15
ENDBRANCH  10  11
ENDBRANCH   7  10
ENDBRANCH   5   6
BRANCH   5  41
ATOM     41  CB  ILE A   6      17.705  33.057  10.773  0.00  0.00    +0.027 C 
ATOM     42  CG2 ILE A   6      17.349  34.511  10.452  0.00  0.00    +0.002 C 
BRANCH  41  43
ATOM     43  CG1 ILE A   6      18.382  33.022  12.154  0.00  0.00    +0.002 C 
ATOM     44  CD1 ILE A   6      17.524  33.545  13.280  0.00  0.00    +0.000 C 
ENDBRANCH  41  43
ENDBRANCH   5  41
ENDBRANCH   3   5
BRANCH   1  45
ATOM     45  CA  ILE A   5      16.266  28.505  11.648  0.00  0.00    +0.149 C 
BRANCH  45  47
ATOM     46  C   ASN A   4      17.288  27.487  13.581  0.00  0.00    +0.241 C 
ATOM     47  N   ILE A   5      16.196  28.025  13.046  0.00  0.00    -0.297 N 
ATOM     48  H   ILE A   5      15.317  28.106  13.595  0.00  0.00    +0.150 HD
ATOM     49  O   ASN A   4      18.345  27.405  12.962  0.00  0.00    -0.273 OA
BRANCH  46  50
ATOM     50  CA  ASN A   4      17.145  26.933  14.994  0.00  0.00    +0.158 C 
BRANCH  50  52
ATOM     51  C   VAL A   3      16.826  24.582  14.440  0.00  0.00    +0.241 C 
ATOM     52  N   ASN A   4      17.617  25.518  14.977  0.00  0.00    -0.297 N 
ATOM     53  H   ASN A   4      18.544  25.264  15.375  0.00  0.00    +0.150 HD
ATOM     54  O   VAL A   3      15.700  24.836  14.020  0.00  0.00    -0.273 OA
BRANCH  51  55
ATOM     55  CA  VAL A   3      17.359  23.157  14.384  0.00  0.00    +0.149 C 
BRANCH  55  58
ATOM     56  C   PRO A   2      16.473  21.000  15.071  0.00  0.00    +0.241 C 
ATOM     57  O   PRO A   2      17.542  20.650  15.568  0.00  0.00    -0.273 OA
ATOM     58  N   VAL A   3      16.268  22.181  14.488  0.00  0.00    -0.297 N 
ATOM     59  H   VAL A   3      15.329  22.412  14.105  0.00  0.00    +0.150 HD
BRANCH  56  63
ATOM     60  C   THR A   1      13.573  21.591  15.862  0.00  0.00    +0.244 C 
ATOM     61  O   THR A   1      14.203  21.834  16.897  0.00  0.00    -0.273 OA
ATOM     62  N   PRO A   2      14.018  20.766  14.910  0.00  0.00    -0.272 N 
ATOM     63  CA  PRO A   2      15.283  20.049  15.052  0.00  0.00    +0.152 C 
ATOM     64  CB  PRO A   2      15.356  19.163  13.820  0.00  0.00    +0.031 C 
ATOM     65  CG  PRO A   2      14.339  19.652  12.874  0.00  0.00    +0.024 C 
ATOM     66  CD  PRO A   2      13.374  20.511  13.623  0.00  0.00    +0.094 C 
BRANCH  60  67
ATOM     67  CA  THR A   1      12.207  22.229  15.629  0.00  0.00    +0.172 C 
BRANCH  67  68
ATOM     68  N   THR A   1      11.446  22.290  16.870  0.00  0.00    -0.236 NA
ATOM     69  H   THR A   1      11.560  23.117  17.490  0.00  0.00    +0.142 HD
ENDBRANCH  67  68
BRANCH  67  70
ATOM     70  CB  THR A   1      12.437  23.648  15.032  0.00  0.00    +0.135 C 
ATOM     71  CG2 THR A   1      13.288  24.471  15.996  0.00  0.00    +0.034 C 
BRANCH  70  72
ATOM     72  OG1 THR A   1      13.276  23.461  13.860  0.00  0.00    -0.383 OA
ATOM     73  HG1 THR A   1      13.454  24.339  13.439  0.00  0.00    +0.210 HD
ENDBRANCH  70  72
ENDBRANCH  67  70
ENDBRANCH  60  67
ENDBRANCH  56  63
ENDBRANCH  55  58
BRANCH  55  74
ATOM     74  CB  VAL A   3      18.152  22.921  13.099  0.00  0.00    +0.027 C 
ATOM     75  CG2 VAL A   3      19.405  23.729  13.006  0.00  0.00    +0.002 C 
ATOM     76  CG1 VAL A   3      17.332  22.872  11.855  0.00  0.00    +0.002 C 
ENDBRANCH  55  74
ENDBRANCH  51  55
ENDBRANCH  50  52
BRANCH  50  77
ATOM     77  CB  ASN A   4      17.938  27.783  15.980  0.00  0.00    +0.114 C 
BRANCH  77  78
ATOM     78  CG  ASN A   4      17.791  27.341  17.432  0.00  0.00    +0.222 C 
ATOM     79  ND2 ASN A   4      18.921  27.274  18.130  0.00  0.00    -0.329 N 
ATOM     80 HD21 ASN A   4      18.899  26.982  19.128  0.00  0.00    +0.145 HD
ATOM     81 HD22 ASN A   4      19.826  27.514  17.678  0.00  0.00    +0.145 HD
ATOM     82  OD1 ASN A   4      16.707  27.068  17.925  0.00  0.00    -0.275 OA
ENDBRANCH  77  78
ENDBRANCH  50  77
ENDBRANCH  46  50
ENDBRANCH  45  47
BRANCH  45  83
ATOM     83  CB  ILE A   5      15.232  27.683  10.837  0.00  0.00    +0.027 C 
ATOM     84  CG2 ILE A   5      14.867  28.313   9.524  0.00  0.00    +0.002 C 
BRANCH  83  85
ATOM     85  CG1 ILE A   5      15.784  26.226  10.591  0.00  0.00    +0.002 C 
ATOM     86  CD1 ILE A   5      14.642  25.247  10.386  0.00  0.00    +0.000 C 
ENDBRANCH  83  85
ENDBRANCH  45  83
ENDBRANCH   1  45
TORSDOF 32
REMARK  Name = ../refined-set-2016/1d4y/1d4y_pocket.pdb
REMARK  217 active torsions:
REMARK  status: ('A' for Active; 'I' for Inactive)
REMARK    1  A    between atoms: _1  and  _3
REMARK    2  A    between atoms: _3  and  _4
REMARK    3  A    between atoms: _3  and  _6
REMARK    4  A    between atoms: _6  and  _7
REMARK    5  A    between atoms: _7  and  _8
REMARK    6  A    between atoms: _8  and  _9
REMARK    7  A    between atoms: _18  and  _20
REMARK    8  A    between atoms: _20  and  _21
REMARK    9  A    between atoms: _20  and  _23
REMARK   10  A    between atoms: _23  and  _24
REMARK   11  A    between atoms: _27  and  _29
REMARK   12  A    between atoms: _29  and  _30
REMARK   13  A    between atoms: _29  and  _32
REMARK   14  A    between atoms: _32  and  _33
REMARK   15  A    between atoms: _36  and  _38
REMARK   16  A    between atoms: _38  and  _39
REMARK   17  A    between atoms: _38  and  _41
REMARK   18  A    between atoms: _41  and  _42
REMARK   19  A    between atoms: _45  and  _47
REMARK   20  A    between atoms: _47  and  _48
REMARK   21  A    between atoms: _47  and  _50
REMARK   22  A    between atoms: _50  and  _51
REMARK   23  A    between atoms: _54  and  _56
REMARK   24  A    between atoms: _56  and  _57
REMARK   25  A    between atoms: _56  and  _59
REMARK   26  A    between atoms: _59  and  _60
REMARK   27  A    between atoms: _63  and  _65
REMARK   28  A    between atoms: _65  and  _66
REMARK   29  A    between atoms: _68  and  _70
REMARK   30  A    between atoms: _70  and  _71
REMARK   31  A    between atoms: _74  and  _76
REMARK   32  A    between atoms: _76  and  _77
REMARK   33  A    between atoms: _76  and  _79
REMARK   34  A    between atoms: _79  and  _80
REMARK   35  A    between atoms: _83  and  _85
REMARK   36  A    between atoms: _85  and  _86
REMARK   37  A    between atoms: _85  and  _88
REMARK   38  A    between atoms: _88  and  _89
REMARK   39  A    between atoms: _92  and  _94
REMARK   40  A    between atoms: _94  and  _95
REMARK   41  A    between atoms: _94  and  _97
REMARK   42  A    between atoms: _97  and  _98
REMARK   43  A    between atoms: _101  and  _103
REMARK   44  A    between atoms: _103  and  _104
REMARK   45  A    between atoms: _103  and  _106
REMARK   46  A    between atoms: _109  and  _111
REMARK   47  A    between atoms: _111  and  _112
REMARK   48  A    between atoms: _111  and  _114
REMARK   49  A    between atoms: _114  and  _115
REMARK   50  A    between atoms: _115  and  _116
REMARK   51  A    between atoms: _116  and  _117
REMARK   52  A    between atoms: _117  and  _118
REMARK   53  A    between atoms: _122  and  _124
REMARK   54  A    between atoms: _124  and  _125
REMARK   55  A    between atoms: _124  and  _127
REMARK   56  A    between atoms: _127  and  _128
REMARK   57  A    between atoms: _128  and  _129
REMARK   58  A    between atoms: _131  and  _133
REMARK   59  A    between atoms: _133  and  _134
REMARK   60  A    between atoms: _133  and  _136
REMARK   61  A    between atoms: _136  and  _137
REMARK   62  A    between atoms: _140  and  _142
REMARK   63  A    between atoms: _142  and  _143
REMARK   64  A    between atoms: _145  and  _147
REMARK   65  A    between atoms: _147  and  _148
REMARK   66  A    between atoms: _150  and  _152
REMARK   67  A    between atoms: _152  and  _153
REMARK   68  A    between atoms: _152  and  _155
REMARK   69  A    between atoms: _155  and  _156
REMARK   70  A    between atoms: _159  and  _161
REMARK   71  A    between atoms: _161  and  _162
REMARK   72  A    between atoms: _164  and  _166
REMARK   73  A    between atoms: _166  and  _167
REMARK   74  A    between atoms: _169  and  _171
REMARK   75  A    between atoms: _171  and  _172
REMARK   76  A    between atoms: _171  and  _174
REMARK   77  A    between atoms: _174  and  _175
REMARK   78  A    between atoms: _181  and  _183
REMARK   79  A    between atoms: _183  and  _184
REMARK   80  A    between atoms: _183  and  _186
REMARK   81  A    between atoms: _186  and  _187
REMARK   82  A    between atoms: _190  and  _192
REMARK   83  A    between atoms: _192  and  _193
REMARK   84  A    between atoms: _192  and  _195
REMARK   85  A    between atoms: _198  and  _200
REMARK   86  A    between atoms: _200  and  _201
REMARK   87  A    between atoms: _200  and  _203
REMARK   88  A    between atoms: _203  and  _204
REMARK   89  A    between atoms: _207  and  _209
REMARK   90  A    between atoms: _209  and  _210
REMARK   91  A    between atoms: _209  and  _212
REMARK   92  A    between atoms: _212  and  _213
REMARK   93  A    between atoms: _217  and  _218
REMARK   94  A    between atoms: _223  and  _225
REMARK   95  A    between atoms: _225  and  _226
REMARK   96  A    between atoms: _225  and  _228
REMARK   97  A    between atoms: _231  and  _233
REMARK   98  A    between atoms: _233  and  _234
REMARK   99  A    between atoms: _233  and  _236
REMARK  100  A    between atoms: _236  and  _237
REMARK  101  A    between atoms: _242  and  _244
REMARK  102  A    between atoms: _244  and  _245
REMARK  103  A    between atoms: _244  and  _247
REMARK  104  A    between atoms: _247  and  _248
REMARK  105  A    between atoms: _251  and  _253
REMARK  106  A    between atoms: _253  and  _254
REMARK  107  A    between atoms: _253  and  _256
REMARK  108  A    between atoms: _256  and  _257
REMARK  109  A    between atoms: _260  and  _262
REMARK  110  A    between atoms: _262  and  _263
REMARK  111  A    between atoms: _265  and  _267
REMARK  112  A    between atoms: _267  and  _268
REMARK  113  A    between atoms: _267  and  _270
REMARK  114  A    between atoms: _270  and  _271
REMARK  115  A    between atoms: _271  and  _272
REMARK  116  A    between atoms: _272  and  _273
REMARK  117  A    between atoms: _282  and  _284
REMARK  118  A    between atoms: _284  and  _285
REMARK  119  A    between atoms: _284  and  _287
REMARK  120  A    between atoms: _287  and  _288
REMARK  121  A    between atoms: _293  and  _295
REMARK  122  A    between atoms: _295  and  _296
REMARK  123  A    between atoms: _295  and  _298
REMARK  124  A    between atoms: _298  and  _299
REMARK  125  A    between atoms: _299  and  _300
REMARK  126  A    between atoms: _300  and  _301
REMARK  127  A    between atoms: _311  and  _312
REMARK  128  A    between atoms: _317  and  _319
REMARK  129  A    between atoms: _319  and  _320
REMARK  130  A    between atoms: _319  and  _322
REMARK  131  A    between atoms: _322  and  _323
REMARK  132  A    between atoms: _326  and  _328
REMARK  133  A    between atoms: _328  and  _329
REMARK  134  A    between atoms: _328  and  _331
REMARK  135  A    between atoms: _331  and  _332
REMARK  136  A    between atoms: _335  and  _337
REMARK  137  A    between atoms: _337  and  _338
REMARK  138  A    between atoms: _337  and  _340
REMARK  139  A    between atoms: _340  and  _341
REMARK  140  A    between atoms: _344  and  _346
REMARK  141  A    between atoms: _346  and  _347
REMARK  142  A    between atoms: _346  and  _349
REMARK  143  A    between atoms: _349  and  _350
REMARK  144  A    between atoms: _353  and  _355
REMARK  145  A    between atoms: _355  and  _356
REMARK  146  A    between atoms: _355  and  _358
REMARK  147  A    between atoms: _358  and  _359
REMARK  148  A    between atoms: _362  and  _364
REMARK  149  A    between atoms: _364  and  _365
REMARK  150  A    between atoms: _367  and  _369
REMARK  151  A    between atoms: _369  and  _370
REMARK  152  A    between atoms: _373  and  _375
REMARK  153  A    between atoms: _375  and  _376
REMARK  154  A    between atoms: _375  and  _378
REMARK  155  A    between atoms: _378  and  _379
REMARK  156  A    between atoms: _382  and  _384
REMARK  157  A    between atoms: _384  and  _385
REMARK  158  A    between atoms: _384  and  _387
REMARK  159  A    between atoms: _387  and  _388
REMARK  160  A    between atoms: _391  and  _393
REMARK  161  A    between atoms: _393  and  _394
REMARK  162  A    between atoms: _393  and  _396
REMARK  163  A    between atoms: _396  and  _397
REMARK  164  A    between atoms: _400  and  _402
REMARK  165  A    between atoms: _402  and  _403
REMARK  166  A    between atoms: _402  and  _405
REMARK  167  A    between atoms: _408  and  _410
REMARK  168  A    between atoms: _410  and  _411
REMARK  169  A    between atoms: _410  and  _413
REMARK  170  A    between atoms: _413  and  _414
REMARK  171  A    between atoms: _417  and  _419
REMARK  172  A    between atoms: _419  and  _420
REMARK  173  A    between atoms: _422  and  _424
REMARK  174  A    between atoms: _424  and  _425
REMARK  175  A    between atoms: _429  and  _430
REMARK  176  A    between atoms: _429  and  _432
REMARK  177  A    between atoms: _432  and  _433
REMARK  178  A    between atoms: _436  and  _438
REMARK  179  A    between atoms: _438  and  _439
REMARK  180  A    between atoms: _441  and  _443
REMARK  181  A    between atoms: _443  and  _444
REMARK  182  A    between atoms: _446  and  _448
REMARK  183  A    between atoms: _448  and  _449
REMARK  184  A    between atoms: _448  and  _451
REMARK  185  A    between atoms: _451  and  _452
REMARK  186  A    between atoms: _458  and  _460
REMARK  187  A    between atoms: _460  and  _461
REMARK  188  A    between atoms: _460  and  _463
REMARK  189  A    between atoms: _463  and  _464
REMARK  190  A    between atoms: _467  and  _469
REMARK  191  A    between atoms: _469  and  _470
REMARK  192  A    between atoms: _469  and  _472
REMARK  193  A    between atoms: _472  and  _473
REMARK  194  A    between atoms: _476  and  _478
REMARK  195  A    between atoms: _478  and  _479
REMARK  196  A    between atoms: _478  and  _481
REMARK  197  A    between atoms: _481  and  _482
REMARK  198  A    between atoms: _486  and  _487
REMARK  199  A    between atoms: _492  and  _494
REMARK  200  A    between atoms: _494  and  _495
REMARK  201  A    between atoms: _494  and  _497
REMARK  202  A    between atoms: _500  and  _502
REMARK  203  A    between atoms: _502  and  _503
REMARK  204  A    between atoms: _502  and  _505
REMARK  205  A    between atoms: _505  and  _506
REMARK  206  A    between atoms: _511  and  _513
REMARK  207  A    between atoms: _513  and  _514
REMARK  208  A    between atoms: _513  and  _516
REMARK  209  A    between atoms: _516  and  _517
REMARK  210  A    between atoms: _520  and  _522
REMARK  211  A    between atoms: _522  and  _523
REMARK  212  A    between atoms: _525  and  _527
REMARK  213  A    between atoms: _527  and  _528
REMARK  214  A    between atoms: _527  and  _530
REMARK  215  A    between atoms: _530  and  _531
REMARK  216  A    between atoms: _531  and  _532
REMARK  217  A    between atoms: _532  and  _533
REMARK                            x       y       z     vdW  Elec       q    Type
REMARK                         _______ _______ _______ _____ _____    ______ ____
ROOT
ATOM      1  C   ARG A   1      11.227  33.492  -3.056  0.00  0.00    +0.241 C 
ATOM      2  N   PRO A   2      12.449  33.047  -2.854  0.00  0.00    -0.272 N 
ATOM      3  CD  PRO A   2      12.986  32.585  -1.562  0.00  0.00    +0.094 C 
ATOM      4  CG  PRO A   2      14.397  32.178  -1.865  0.00  0.00    +0.024 C 
ATOM      5  CB  PRO A   2      14.746  32.818  -3.185  0.00  0.00    +0.031 C 
ATOM      6  CA  PRO A   2      13.429  32.935  -3.926  0.00  0.00    +0.152 C 
ATOM      7  O   ARG A   1      10.744  33.831  -4.133  0.00  0.00    -0.273 OA
ENDROOT
BRANCH   6   8
ATOM      8  C   PRO A   2      13.161  31.736  -4.839  0.00  0.00    +0.241 C 
ATOM      9  O   PRO A   2      13.869  30.754  -4.824  0.00  0.00    -0.273 OA
ATOM     10  N   LEU A   3      12.104  31.840  -5.641  0.00  0.00    -0.298 N 
ATOM     11  H   LEU A   3      11.514  32.692  -5.557  0.00  0.00    +0.150 HD
BRANCH  10  12
ATOM     12  CA  LEU A   3      11.721  30.854  -6.617  0.00  0.00    +0.137 C 
BRANCH  12  13
ATOM     13  C   LEU A   3      12.414  31.096  -7.948  0.00  0.00    +0.227 C 
ATOM     14  O   LEU A   3      12.567  32.246  -8.369  0.00  0.00    -0.286 OA
ENDBRANCH  12  13
BRANCH  12  15
ATOM     15  CB  LEU A   3      10.189  30.901  -6.885  0.00  0.00    +0.028 C 
BRANCH  15  16
ATOM     16  CG  LEU A   3       9.354  30.434  -5.664  0.00  0.00    +0.002 C 
ATOM     17  CD2 LEU A   3       9.341  28.912  -5.643  0.00  0.00    +0.000 C 
ATOM     18  CD1 LEU A   3       7.949  30.985  -5.752  0.00  0.00    +0.000 C 
ENDBRANCH  15  16
ENDBRANCH  12  15
ENDBRANCH  10  12
ENDBRANCH   6   8
BRANCH   1  19
ATOM     19  CA  ARG A   1      10.313  33.553  -1.812  0.00  0.00    +0.145 C 
BRANCH  19  20
ATOM     20  N   ARG A   1       9.600  34.879  -1.855  0.00  0.00    -0.238 NA
ATOM     21  H   ARG A   1       8.578  34.951  -2.033  0.00  0.00    +0.142 HD
ENDBRANCH  19  20
BRANCH  19  22
ATOM     22  CB  ARG A   1       9.229  32.463  -2.031  0.00  0.00    +0.030 C 
BRANCH  22  23
ATOM     23  CG  ARG A   1       8.560  32.066  -0.732  0.00  0.00    +0.045 C 
BRANCH  23  24
ATOM     24  CD  ARG A   1       7.512  30.969  -1.009  0.00  0.00    +0.174 C 
BRANCH  24  25
ATOM     25  NE  ARG A   1       6.808  30.662   0.224  0.00  0.00    -0.265 N 
ATOM     26  HE  ARG A   1       7.214  31.010   1.116  0.00  0.00    +0.259 HD
ATOM     27  CZ  ARG A   1       5.677  29.964   0.286  0.00  0.00    +0.342 C 
ATOM     28  NH2 ARG A   1       5.121  29.739   1.470  0.00  0.00    -0.292 N 
ATOM     29 HH21 ARG A   1       5.569  30.107   2.333  0.00  0.00    +0.255 HD
ATOM     30 HH22 ARG A   1       4.237  29.195   1.534  0.00  0.00    +0.255 HD
ATOM     31  NH1 ARG A   1       5.124  29.514  -0.822  0.00  0.00    -0.292 N 
ATOM     32 HH11 ARG A   1       4.240  28.968  -0.777  0.00  0.00    +0.255 HD
ATOM     33 HH12 ARG A   1       5.572  29.705  -1.741  0.00  0.00    +0.255 HD
ENDBRANCH  24  25
ENDBRANCH  23  24
ENDBRANCH  22  23
ENDBRANCH  19  22
ENDBRANCH   1  19
TORSDOF 11
REMARK  Name = ../refined-set-2016/1d4y/1d4y_pocket.pdb
REMARK  217 active torsions:
REMARK  status: ('A' for Active; 'I' for Inactive)
REMARK    1  A    between atoms: _1  and  _3
REMARK    2  A    between atoms: _3  and  _4
REMARK    3  A    between atoms: _3  and  _6
REMARK    4  A    between atoms: _6  and  _7
REMARK    5  A    between atoms: _7  and  _8
REMARK    6  A    between atoms: _8  and  _9
REMARK    7  A    between atoms: _18  and  _20
REMARK    8  A    between atoms: _20  and  _21
REMARK    9  A    between atoms: _20  and  _23
REMARK   10  A    between atoms: _23  and  _24
REMARK   11  A    between atoms: _27  and  _29
REMARK   12  A    between atoms: _29  and  _30
REMARK   13  A    between atoms: _29  and  _32
REMARK   14  A    between atoms: _32  and  _33
REMARK   15  A    between atoms: _36  and  _38
REMARK   16  A    between atoms: _38  and  _39
REMARK   17  A    between atoms: _38  and  _41
REMARK   18  A    between atoms: _41  and  _42
REMARK   19  A    between atoms: _45  and  _47
REMARK   20  A    between atoms: _47  and  _48
REMARK   21  A    between atoms: _47  and  _50
REMARK   22  A    between atoms: _50  and  _51
REMARK   23  A    between atoms: _54  and  _56
REMARK   24  A    between atoms: _56  and  _57
REMARK   25  A    between atoms: _56  and  _59
REMARK   26  A    between atoms: _59  and  _60
REMARK   27  A    between atoms: _63  and  _65
REMARK   28  A    between atoms: _65  and  _66
REMARK   29  A    between atoms: _68  and  _70
REMARK   30  A    between atoms: _70  and  _71
REMARK   31  A    between atoms: _74  and  _76
REMARK   32  A    between atoms: _76  and  _77
REMARK   33  A    between atoms: _76  and  _79
REMARK   34  A    between atoms: _79  and  _80
REMARK   35  A    between atoms: _83  and  _85
REMARK   36  A    between atoms: _85  and  _86
REMARK   37  A    between atoms: _85  and  _88
REMARK   38  A    between atoms: _88  and  _89
REMARK   39  A    between atoms: _92  and  _94
REMARK   40  A    between atoms: _94  and  _95
REMARK   41  A    between atoms: _94  and  _97
REMARK   42  A    between atoms: _97  and  _98
REMARK   43  A    between atoms: _101  and  _103
REMARK   44  A    between atoms: _103  and  _104
REMARK   45  A    between atoms: _103  and  _106
REMARK   46  A    between atoms: _109  and  _111
REMARK   47  A    between atoms: _111  and  _112
REMARK   48  A    between atoms: _111  and  _114
REMARK   49  A    between atoms: _114  and  _115
REMARK   50  A    between atoms: _115  and  _116
REMARK   51  A    between atoms: _116  and  _117
REMARK   52  A    between atoms: _117  and  _118
REMARK   53  A    between atoms: _122  and  _124
REMARK   54  A    between atoms: _124  and  _125
REMARK   55  A    between atoms: _124  and  _127
REMARK   56  A    between atoms: _127  and  _128
REMARK   57  A    between atoms: _128  and  _129
REMARK   58  A    between atoms: _131  and  _133
REMARK   59  A    between atoms: _133  and  _134
REMARK   60  A    between atoms: _133  and  _136
REMARK   61  A    between atoms: _136  and  _137
REMARK   62  A    between atoms: _140  and  _142
REMARK   63  A    between atoms: _142  and  _143
REMARK   64  A    between atoms: _145  and  _147
REMARK   65  A    between atoms: _147  and  _148
REMARK   66  A    between atoms: _150  and  _152
REMARK   67  A    between atoms: _152  and  _153
REMARK   68  A    between atoms: _152  and  _155
REMARK   69  A    between atoms: _155  and  _156
REMARK   70  A    between atoms: _159  and  _161
REMARK   71  A    between atoms: _161  and  _162
REMARK   72  A    between atoms: _164  and  _166
REMARK   73  A    between atoms: _166  and  _167
REMARK   74  A    between atoms: _169  and  _171
REMARK   75  A    between atoms: _171  and  _172
REMARK   76  A    between atoms: _171  and  _174
REMARK   77  A    between atoms: _174  and  _175
REMARK   78  A    between atoms: _181  and  _183
REMARK   79  A    between atoms: _183  and  _184
REMARK   80  A    between atoms: _183  and  _186
REMARK   81  A    between atoms: _186  and  _187
REMARK   82  A    between atoms: _190  and  _192
REMARK   83  A    between atoms: _192  and  _193
REMARK   84  A    between atoms: _192  and  _195
REMARK   85  A    between atoms: _198  and  _200
REMARK   86  A    between atoms: _200  and  _201
REMARK   87  A    between atoms: _200  and  _203
REMARK   88  A    between atoms: _203  and  _204
REMARK   89  A    between atoms: _207  and  _209
REMARK   90  A    between atoms: _209  and  _210
REMARK   91  A    between atoms: _209  and  _212
REMARK   92  A    between atoms: _212  and  _213
REMARK   93  A    between atoms: _217  and  _218
REMARK   94  A    between atoms: _223  and  _225
REMARK   95  A    between atoms: _225  and  _226
REMARK   96  A    between atoms: _225  and  _228
REMARK   97  A    between atoms: _231  and  _233
REMARK   98  A    between atoms: _233  and  _234
REMARK   99  A    between atoms: _233  and  _236
REMARK  100  A    between atoms: _236  and  _237
REMARK  101  A    between atoms: _242  and  _244
REMARK  102  A    between atoms: _244  and  _245
REMARK  103  A    between atoms: _244  and  _247
REMARK  104  A    between atoms: _247  and  _248
REMARK  105  A    between atoms: _251  and  _253
REMARK  106  A    between atoms: _253  and  _254
REMARK  107  A    between atoms: _253  and  _256
REMARK  108  A    between atoms: _256  and  _257
REMARK  109  A    between atoms: _260  and  _262
REMARK  110  A    between atoms: _262  and  _263
REMARK  111  A    between atoms: _265  and  _267
REMARK  112  A    between atoms: _267  and  _268
REMARK  113  A    between atoms: _267  and  _270
REMARK  114  A    between atoms: _270  and  _271
REMARK  115  A    between atoms: _271  and  _272
REMARK  116  A    between atoms: _272  and  _273
REMARK  117  A    between atoms: _282  and  _284
REMARK  118  A    between atoms: _284  and  _285
REMARK  119  A    between atoms: _284  and  _287
REMARK  120  A    between atoms: _287  and  _288
REMARK  121  A    between atoms: _293  and  _295
REMARK  122  A    between atoms: _295  and  _296
REMARK  123  A    between atoms: _295  and  _298
REMARK  124  A    between atoms: _298  and  _299
REMARK  125  A    between atoms: _299  and  _300
REMARK  126  A    between atoms: _300  and  _301
REMARK  127  A    between atoms: _311  and  _312
REMARK  128  A    between atoms: _317  and  _319
REMARK  129  A    between atoms: _319  and  _320
REMARK  130  A    between atoms: _319  and  _322
REMARK  131  A    between atoms: _322  and  _323
REMARK  132  A    between atoms: _326  and  _328
REMARK  133  A    between atoms: _328  and  _329
REMARK  134  A    between atoms: _328  and  _331
REMARK  135  A    between atoms: _331  and  _332
REMARK  136  A    between atoms: _335  and  _337
REMARK  137  A    between atoms: _337  and  _338
REMARK  138  A    between atoms: _337  and  _340
REMARK  139  A    between atoms: _340  and  _341
REMARK  140  A    between atoms: _344  and  _346
REMARK  141  A    between atoms: _346  and  _347
REMARK  142  A    between atoms: _346  and  _349
REMARK  143  A    between atoms: _349  and  _350
REMARK  144  A    between atoms: _353  and  _355
REMARK  145  A    between atoms: _355  and  _356
REMARK  146  A    between atoms: _355  and  _358
REMARK  147  A    between atoms: _358  and  _359
REMARK  148  A    between atoms: _362  and  _364
REMARK  149  A    between atoms: _364  and  _365
REMARK  150  A    between atoms: _367  and  _369
REMARK  151  A    between atoms: _369  and  _370
REMARK  152  A    between atoms: _373  and  _375
REMARK  153  A    between atoms: _375  and  _376
REMARK  154  A    between atoms: _375  and  _378
REMARK  155  A    between atoms: _378  and  _379
REMARK  156  A    between atoms: _382  and  _384
REMARK  157  A    between atoms: _384  and  _385
REMARK  158  A    between atoms: _384  and  _387
REMARK  159  A    between atoms: _387  and  _388
REMARK  160  A    between atoms: _391  and  _393
REMARK  161  A    between atoms: _393  and  _394
REMARK  162  A    between atoms: _393  and  _396
REMARK  163  A    between atoms: _396  and  _397
REMARK  164  A    between atoms: _400  and  _402
REMARK  165  A    between atoms: _402  and  _403
REMARK  166  A    between atoms: _402  and  _405
REMARK  167  A    between atoms: _408  and  _410
REMARK  168  A    between atoms: _410  and  _411
REMARK  169  A    between atoms: _410  and  _413
REMARK  170  A    between atoms: _413  and  _414
REMARK  171  A    between atoms: _417  and  _419
REMARK  172  A    between atoms: _419  and  _420
REMARK  173  A    between atoms: _422  and  _424
REMARK  174  A    between atoms: _424  and  _425
REMARK  175  A    between atoms: _429  and  _430
REMARK  176  A    between atoms: _429  and  _432
REMARK  177  A    between atoms: _432  and  _433
REMARK  178  A    between atoms: _436  and  _438
REMARK  179  A    between atoms: _438  and  _439
REMARK  180  A    between atoms: _441  and  _443
REMARK  181  A    between atoms: _443  and  _444
REMARK  182  A    between atoms: _446  and  _448
REMARK  183  A    between atoms: _448  and  _449
REMARK  184  A    between atoms: _448  and  _451
REMARK  185  A    between atoms: _451  and  _452
REMARK  186  A    between atoms: _458  and  _460
REMARK  187  A    between atoms: _460  and  _461
REMARK  188  A    between atoms: _460  and  _463
REMARK  189  A    between atoms: _463  and  _464
REMARK  190  A    between atoms: _467  and  _469
REMARK  191  A    between atoms: _469  and  _470
REMARK  192  A    between atoms: _469  and  _472
REMARK  193  A    between atoms: _472  and  _473
REMARK  194  A    between atoms: _476  and  _478
REMARK  195  A    between atoms: _478  and  _479
REMARK  196  A    between atoms: _478  and  _481
REMARK  197  A    between atoms: _481  and  _482
REMARK  198  A    between atoms: _486  and  _487
REMARK  199  A    between atoms: _492  and  _494
REMARK  200  A    between atoms: _494  and  _495
REMARK  201  A    between atoms: _494  and  _497
REMARK  202  A    between atoms: _500  and  _502
REMARK  203  A    between atoms: _502  and  _503
REMARK  204  A    between atoms: _502  and  _505
REMARK  205  A    between atoms: _505  and  _506
REMARK  206  A    between atoms: _511  and  _513
REMARK  207  A    between atoms: _513  and  _514
REMARK  208  A    between atoms: _513  and  _516
REMARK  209  A    between atoms: _516  and  _517
REMARK  210  A    between atoms: _520  and  _522
REMARK  211  A    between atoms: _522  and  _523
REMARK  212  A    between atoms: _525  and  _527
REMARK  213  A    between atoms: _527  and  _528
REMARK  214  A    between atoms: _527  and  _530
REMARK  215  A    between atoms: _530  and  _531
REMARK  216  A    between atoms: _531  and  _532
REMARK  217  A    between atoms: _532  and  _533
REMARK                            x       y       z     vdW  Elec       q    Type
REMARK                         _______ _______ _______ _____ _____    ______ ____
ROOT
ATOM      1  C   GLY A   5      19.045  24.059   4.463  0.00  0.00    +0.243 C 
ATOM      2  O   GLY A   5      19.072  23.219   5.377  0.00  0.00    -0.273 OA
ATOM      3  N   ALA A   6      18.933  23.707   3.207  0.00  0.00    -0.297 N 
ATOM      4  H   ALA A   6      18.906  24.461   2.491  0.00  0.00    +0.150 HD
ENDROOT
BRANCH   3   5
ATOM      5  CA  ALA A   6      18.844  22.325   2.746  0.00  0.00    +0.149 C 
ATOM      6  CB  ALA A   6      17.849  22.236   1.569  0.00  0.00    +0.031 C 
BRANCH   5   7
ATOM      7  C   ALA A   6      20.182  21.793   2.300  0.00  0.00    +0.241 C 
ATOM      8  N   ASP A   7      20.609  20.645   2.886  0.00  0.00    -0.297 N 
ATOM      9  H   ASP A   7      20.057  20.181   3.636  0.00  0.00    +0.150 HD
ATOM     10  O   ALA A   6      20.840  22.362   1.424  0.00  0.00    -0.273 OA
BRANCH   8  11
ATOM     11  CA  ASP A   7      21.882  20.088   2.416  0.00  0.00    +0.160 C 
BRANCH  11  12
ATOM     12  C   ASP A   7      21.732  19.552   0.996  0.00  0.00    +0.241 C 
ATOM     13  N   ASP A   8      20.538  19.007   0.728  0.00  0.00    -0.297 N 
ATOM     14  H   ASP A   8      19.752  19.082   1.404  0.00  0.00    +0.150 HD
ATOM     15  O   ASP A   7      22.658  19.545   0.195  0.00  0.00    -0.273 OA
BRANCH  13  16
ATOM     16  CA  ASP A   8      20.371  18.299  -0.550  0.00  0.00    +0.160 C 
BRANCH  16  17
ATOM     17  C   ASP A   8      19.217  18.955  -1.338  0.00  0.00    +0.241 C 
ATOM     18  O   ASP A   8      18.499  19.751  -0.775  0.00  0.00    -0.273 OA
ATOM     19  N   THR A   9      19.090  18.472  -2.548  0.00  0.00    -0.295 N 
ATOM     20  H   THR A   9      19.761  17.733  -2.840  0.00  0.00    +0.150 HD
BRANCH  19  21
ATOM     21  CA  THR A   9      18.096  18.880  -3.509  0.00  0.00    +0.176 C 
BRANCH  21  22
ATOM     22  C   THR A   9      16.962  17.856  -3.588  0.00  0.00    +0.243 C 
ATOM     23  N   VAL A  10      15.747  18.315  -3.300  0.00  0.00    -0.298 N 
ATOM     24  H   VAL A  10      15.648  19.330  -3.097  0.00  0.00    +0.150 HD
ATOM     25  O   THR A   9      17.218  16.703  -3.874  0.00  0.00    -0.273 OA
BRANCH  23  26
ATOM     26  CA  VAL A  10      14.561  17.504  -3.250  0.00  0.00    +0.137 C 
BRANCH  26  27
ATOM     27  CB  VAL A  10      13.910  17.545  -1.826  0.00  0.00    +0.026 C 
ATOM     28  CG2 VAL A  10      15.016  17.363  -0.773  0.00  0.00    +0.002 C 
ATOM     29  CG1 VAL A  10      12.967  16.326  -1.745  0.00  0.00    +0.002 C 
ENDBRANCH  26  27
BRANCH  26  30
ATOM     30  C   VAL A  10      13.492  17.987  -4.240  0.00  0.00    +0.227 C 
ATOM     31  O   VAL A  10      13.137  19.165  -4.177  0.00  0.00    -0.286 OA
ENDBRANCH  26  30
ENDBRANCH  23  26
ENDBRANCH  21  22
BRANCH  21  32
ATOM     32  CB  THR A   9      18.740  19.085  -4.895  0.00  0.00    +0.137 C 
ATOM     33  CG2 THR A   9      17.706  19.398  -5.941  0.00  0.00    +0.034 C 
BRANCH  32  34
ATOM     34  OG1 THR A   9      19.598  20.272  -4.772  0.00  0.00    -0.382 OA
ATOM     35  HG1 THR A   9      20.285  20.110  -4.078  0.00  0.00    +0.210 HD
ENDBRANCH  32  34
ENDBRANCH  21  32
ENDBRANCH  19  21
ENDBRANCH  16  17
BRANCH  16  36
ATOM     36  CB  ASP A   8      19.839  16.852  -0.223  0.00  0.00    +0.143 C 
BRANCH  36  37
ATOM     37  CG  ASP A   8      20.753  16.108   0.716  0.00  0.00    +0.367 C 
ATOM     38  OD2 ASP A   8      20.245  15.543   1.709  0.00  0.00    -0.246 OA
ATOM     39  OD1 ASP A   8      21.971  16.064   0.474  0.00  0.00    -0.246 OA
ENDBRANCH  36  37
ENDBRANCH  16  36
ENDBRANCH  13  16
ENDBRANCH  11  12
BRANCH  11  40
ATOM     40  CB  ASP A   7      22.322  18.906   3.291  0.00  0.00    +0.143 C 
BRANCH  40  41
ATOM     41  CG  ASP A   7      22.509  19.251   4.736  0.00  0.00    +0.367 C 
ATOM     42  OD2 ASP A   7      22.209  18.385   5.595  0.00  0.00    -0.246 OA
ATOM     43  OD1 ASP A   7      22.995  20.360   5.044  0.00  0.00    -0.246 OA
ENDBRANCH  40  41
ENDBRANCH  11  40
ENDBRANCH   8  11
ENDBRANCH   5   7
ENDBRANCH   3   5
BRANCH   1  44
ATOM     44  CA  GLY A   5      19.125  25.548   4.808  0.00  0.00    +0.176 C 
BRANCH  44  46
ATOM     45  C   THR A   4      20.409  26.613   3.059  0.00  0.00    +0.243 C 
ATOM     46  N   GLY A   5      19.223  26.389   3.623  0.00  0.00    -0.295 N 
ATOM     47  H   GLY A   5      18.366  26.815   3.216  0.00  0.00    +0.150 HD
ATOM     48  O   THR A   4      21.449  26.154   3.538  0.00  0.00    -0.273 OA
BRANCH  45  49
ATOM     49  CA  THR A   4      20.431  27.499   1.817  0.00  0.00    +0.176 C 
BRANCH  49  51
ATOM     50  C   ASP A   3      18.489  26.685   0.589  0.00  0.00    +0.241 C 
ATOM     51  N   THR A   4      19.094  27.660   1.253  0.00  0.00    -0.295 N 
ATOM     52  H   THR A   4      18.601  28.567   1.376  0.00  0.00    +0.150 HD
ATOM     53  O   ASP A   3      18.983  25.539   0.487  0.00  0.00    -0.273 OA
BRANCH  50  54
ATOM     54  CA  ASP A   3      17.129  26.965   0.011  0.00  0.00    +0.160 C 
BRANCH  54  57
ATOM     55  C   LEU A   2      16.728  28.213  -2.017  0.00  0.00    +0.241 C 
ATOM     56  O   LEU A   2      16.340  29.169  -1.360  0.00  0.00    -0.273 OA
ATOM     57  N   ASP A   3      17.180  27.079  -1.466  0.00  0.00    -0.297 N 
ATOM     58  H   ASP A   3      17.553  26.306  -2.053  0.00  0.00    +0.150 HD
BRANCH  55  59
ATOM     59  CA  LEU A   2      16.637  28.256  -3.534  0.00  0.00    +0.149 C 
BRANCH  59  62
ATOM     60  C   LEU A   1      14.499  27.161  -3.899  0.00  0.00    +0.238 C 
ATOM     61  O   LEU A   1      15.038  26.057  -3.669  0.00  0.00    -0.274 OA
ATOM     62  N   LEU A   2      15.210  28.297  -3.899  0.00  0.00    -0.297 N 
ATOM     63  H   LEU A   2      14.759  29.199  -4.154  0.00  0.00    +0.150 HD
BRANCH  60  64
ATOM     64  CA  LEU A   1      13.030  27.254  -4.225  0.00  0.00    +0.145 C 
BRANCH  64  65
ATOM     65  N   LEU A   1      12.654  26.378  -5.318  0.00  0.00    -0.238 NA
ATOM     66  H   LEU A   1      12.554  25.367  -5.096  0.00  0.00    +0.142 HD
ENDBRANCH  64  65
BRANCH  64  67
ATOM     67  CB  LEU A   1      12.137  26.919  -3.032  0.00  0.00    +0.026 C 
BRANCH  67  68
ATOM     68  CG  LEU A   1      12.208  27.704  -1.760  0.00  0.00    +0.002 C 
ATOM     69  CD2 LEU A   1      11.424  27.007  -0.639  0.00  0.00    +0.000 C 
ATOM     70  CD1 LEU A   1      11.673  29.133  -1.931  0.00  0.00    +0.000 C 
ENDBRANCH  67  68
ENDBRANCH  64  67
ENDBRANCH  60  64
ENDBRANCH  59  62
BRANCH  59  71
ATOM     71  CB  LEU A   2      17.387  29.450  -4.068  0.00  0.00    +0.029 C 
BRANCH  71  72
ATOM     72  CG  LEU A   2      17.354  29.671  -5.589  0.00  0.00    +0.002 C 
ATOM     73  CD2 LEU A   2      18.134  30.959  -5.909  0.00  0.00    +0.000 C 
ATOM     74  CD1 LEU A   2      18.044  28.485  -6.279  0.00  0.00    +0.000 C 
ENDBRANCH  71  72
ENDBRANCH  59  71
ENDBRANCH  55  59
ENDBRANCH  54  57
BRANCH  54  75
ATOM     75  CB  ASP A   3      16.170  25.771   0.324  0.00  0.00    +0.143 C 
BRANCH  75  76
ATOM     76  CG  ASP A   3      15.891  25.622   1.796  0.00  0.00    +0.367 C 
ATOM     77  OD2 ASP A   3      16.753  25.925   2.647  0.00  0.00    -0.246 OA
ATOM     78  OD1 ASP A   3      14.777  25.183   2.133  0.00  0.00    -0.246 OA
ENDBRANCH  75  76
ENDBRANCH  54  75
ENDBRANCH  50  54
ENDBRANCH  49  51
BRANCH  49  79
ATOM     79  CB  THR A   4      20.999  28.892   2.240  0.00  0.00    +0.137 C 
ATOM     80  CG2 THR A   4      21.298  29.733   1.032  0.00  0.00    +0.034 C 
BRANCH  79  81
ATOM     81  OG1 THR A   4      20.033  29.577   3.039  0.00  0.00    -0.382 OA
ATOM     82  HG1 THR A   4      19.835  29.041   3.848  0.00  0.00    +0.210 HD
ENDBRANCH  79  81
ENDBRANCH  49  79
ENDBRANCH  45  49
ENDBRANCH  44  46
ENDBRANCH   1  44
TORSDOF 35
REMARK  Name = ../refined-set-2016/1d4y/1d4y_pocket.pdb
REMARK  217 active torsions:
REMARK  status: ('A' for Active; 'I' for Inactive)
REMARK    1  A    between atoms: _1  and  _3
REMARK    2  A    between atoms: _3  and  _4
REMARK    3  A    between atoms: _3  and  _6
REMARK    4  A    between atoms: _6  and  _7
REMARK    5  A    between atoms: _7  and  _8
REMARK    6  A    between atoms: _8  and  _9
REMARK    7  A    between atoms: _18  and  _20
REMARK    8  A    between atoms: _20  and  _21
REMARK    9  A    between atoms: _20  and  _23
REMARK   10  A    between atoms: _23  and  _24
REMARK   11  A    between atoms: _27  and  _29
REMARK   12  A    between atoms: _29  and  _30
REMARK   13  A    between atoms: _29  and  _32
REMARK   14  A    between atoms: _32  and  _33
REMARK   15  A    between atoms: _36  and  _38
REMARK   16  A    between atoms: _38  and  _39
REMARK   17  A    between atoms: _38  and  _41
REMARK   18  A    between atoms: _41  and  _42
REMARK   19  A    between atoms: _45  and  _47
REMARK   20  A    between atoms: _47  and  _48
REMARK   21  A    between atoms: _47  and  _50
REMARK   22  A    between atoms: _50  and  _51
REMARK   23  A    between atoms: _54  and  _56
REMARK   24  A    between atoms: _56  and  _57
REMARK   25  A    between atoms: _56  and  _59
REMARK   26  A    between atoms: _59  and  _60
REMARK   27  A    between atoms: _63  and  _65
REMARK   28  A    between atoms: _65  and  _66
REMARK   29  A    between atoms: _68  and  _70
REMARK   30  A    between atoms: _70  and  _71
REMARK   31  A    between atoms: _74  and  _76
REMARK   32  A    between atoms: _76  and  _77
REMARK   33  A    between atoms: _76  and  _79
REMARK   34  A    between atoms: _79  and  _80
REMARK   35  A    between atoms: _83  and  _85
REMARK   36  A    between atoms: _85  and  _86
REMARK   37  A    between atoms: _85  and  _88
REMARK   38  A    between atoms: _88  and  _89
REMARK   39  A    between atoms: _92  and  _94
REMARK   40  A    between atoms: _94  and  _95
REMARK   41  A    between atoms: _94  and  _97
REMARK   42  A    between atoms: _97  and  _98
REMARK   43  A    between atoms: _101  and  _103
REMARK   44  A    between atoms: _103  and  _104
REMARK   45  A    between atoms: _103  and  _106
REMARK   46  A    between atoms: _109  and  _111
REMARK   47  A    between atoms: _111  and  _112
REMARK   48  A    between atoms: _111  and  _114
REMARK   49  A    between atoms: _114  and  _115
REMARK   50  A    between atoms: _115  and  _116
REMARK   51  A    between atoms: _116  and  _117
REMARK   52  A    between atoms: _117  and  _118
REMARK   53  A    between atoms: _122  and  _124
REMARK   54  A    between atoms: _124  and  _125
REMARK   55  A    between atoms: _124  and  _127
REMARK   56  A    between atoms: _127  and  _128
REMARK   57  A    between atoms: _128  and  _129
REMARK   58  A    between atoms: _131  and  _133
REMARK   59  A    between atoms: _133  and  _134
REMARK   60  A    between atoms: _133  and  _136
REMARK   61  A    between atoms: _136  and  _137
REMARK   62  A    between atoms: _140  and  _142
REMARK   63  A    between atoms: _142  and  _143
REMARK   64  A    between atoms: _145  and  _147
REMARK   65  A    between atoms: _147  and  _148
REMARK   66  A    between atoms: _150  and  _152
REMARK   67  A    between atoms: _152  and  _153
REMARK   68  A    between atoms: _152  and  _155
REMARK   69  A    between atoms: _155  and  _156
REMARK   70  A    between atoms: _159  and  _161
REMARK   71  A    between atoms: _161  and  _162
REMARK   72  A    between atoms: _164  and  _166
REMARK   73  A    between atoms: _166  and  _167
REMARK   74  A    between atoms: _169  and  _171
REMARK   75  A    between atoms: _171  and  _172
REMARK   76  A    between atoms: _171  and  _174
REMARK   77  A    between atoms: _174  and  _175
REMARK   78  A    between atoms: _181  and  _183
REMARK   79  A    between atoms: _183  and  _184
REMARK   80  A    between atoms: _183  and  _186
REMARK   81  A    between atoms: _186  and  _187
REMARK   82  A    between atoms: _190  and  _192
REMARK   83  A    between atoms: _192  and  _193
REMARK   84  A    between atoms: _192  and  _195
REMARK   85  A    between atoms: _198  and  _200
REMARK   86  A    between atoms: _200  and  _201
REMARK   87  A    between atoms: _200  and  _203
REMARK   88  A    between atoms: _203  and  _204
REMARK   89  A    between atoms: _207  and  _209
REMARK   90  A    between atoms: _209  and  _210
REMARK   91  A    between atoms: _209  and  _212
REMARK   92  A    between atoms: _212  and  _213
REMARK   93  A    between atoms: _217  and  _218
REMARK   94  A    between atoms: _223  and  _225
REMARK   95  A    between atoms: _225  and  _226
REMARK   96  A    between atoms: _225  and  _228
REMARK   97  A    between atoms: _231  and  _233
REMARK   98  A    between atoms: _233  and  _234
REMARK   99  A    between atoms: _233  and  _236
REMARK  100  A    between atoms: _236  and  _237
REMARK  101  A    between atoms: _242  and  _244
REMARK  102  A    between atoms: _244  and  _245
REMARK  103  A    between atoms: _244  and  _247
REMARK  104  A    between atoms: _247  and  _248
REMARK  105  A    between atoms: _251  and  _253
REMARK  106  A    between atoms: _253  and  _254
REMARK  107  A    between atoms: _253  and  _256
REMARK  108  A    between atoms: _256  and  _257
REMARK  109  A    between atoms: _260  and  _262
REMARK  110  A    between atoms: _262  and  _263
REMARK  111  A    between atoms: _265  and  _267
REMARK  112  A    between atoms: _267  and  _268
REMARK  113  A    between atoms: _267  and  _270
REMARK  114  A    between atoms: _270  and  _271
REMARK  115  A    between atoms: _271  and  _272
REMARK  116  A    between atoms: _272  and  _273
REMARK  117  A    between atoms: _282  and  _284
REMARK  118  A    between atoms: _284  and  _285
REMARK  119  A    between atoms: _284  and  _287
REMARK  120  A    between atoms: _287  and  _288
REMARK  121  A    between atoms: _293  and  _295
REMARK  122  A    between atoms: _295  and  _296
REMARK  123  A    between atoms: _295  and  _298
REMARK  124  A    between atoms: _298  and  _299
REMARK  125  A    between atoms: _299  and  _300
REMARK  126  A    between atoms: _300  and  _301
REMARK  127  A    between atoms: _311  and  _312
REMARK  128  A    between atoms: _317  and  _319
REMARK  129  A    between atoms: _319  and  _320
REMARK  130  A    between atoms: _319  and  _322
REMARK  131  A    between atoms: _322  and  _323
REMARK  132  A    between atoms: _326  and  _328
REMARK  133  A    between atoms: _328  and  _329
REMARK  134  A    between atoms: _328  and  _331
REMARK  135  A    between atoms: _331  and  _332
REMARK  136  A    between atoms: _335  and  _337
REMARK  137  A    between atoms: _337  and  _338
REMARK  138  A    between atoms: _337  and  _340
REMARK  139  A    between atoms: _340  and  _341
REMARK  140  A    between atoms: _344  and  _346
REMARK  141  A    between atoms: _346  and  _347
REMARK  142  A    between atoms: _346  and  _349
REMARK  143  A    between atoms: _349  and  _350
REMARK  144  A    between atoms: _353  and  _355
REMARK  145  A    between atoms: _355  and  _356
REMARK  146  A    between atoms: _355  and  _358
REMARK  147  A    between atoms: _358  and  _359
REMARK  148  A    between atoms: _362  and  _364
REMARK  149  A    between atoms: _364  and  _365
REMARK  150  A    between atoms: _367  and  _369
REMARK  151  A    between atoms: _369  and  _370
REMARK  152  A    between atoms: _373  and  _375
REMARK  153  A    between atoms: _375  and  _376
REMARK  154  A    between atoms: _375  and  _378
REMARK  155  A    between atoms: _378  and  _379
REMARK  156  A    between atoms: _382  and  _384
REMARK  157  A    between atoms: _384  and  _385
REMARK  158  A    between atoms: _384  and  _387
REMARK  159  A    between atoms: _387  and  _388
REMARK  160  A    between atoms: _391  and  _393
REMARK  161  A    between atoms: _393  and  _394
REMARK  162  A    between atoms: _393  and  _396
REMARK  163  A    between atoms: _396  and  _397
REMARK  164  A    between atoms: _400  and  _402
REMARK  165  A    between atoms: _402  and  _403
REMARK  166  A    between atoms: _402  and  _405
REMARK  167  A    between atoms: _408  and  _410
REMARK  168  A    between atoms: _410  and  _411
REMARK  169  A    between atoms: _410  and  _413
REMARK  170  A    between atoms: _413  and  _414
REMARK  171  A    between atoms: _417  and  _419
REMARK  172  A    between atoms: _419  and  _420
REMARK  173  A    between atoms: _422  and  _424
REMARK  174  A    between atoms: _424  and  _425
REMARK  175  A    between atoms: _429  and  _430
REMARK  176  A    between atoms: _429  and  _432
REMARK  177  A    between atoms: _432  and  _433
REMARK  178  A    between atoms: _436  and  _438
REMARK  179  A    between atoms: _438  and  _439
REMARK  180  A    between atoms: _441  and  _443
REMARK  181  A    between atoms: _443  and  _444
REMARK  182  A    between atoms: _446  and  _448
REMARK  183  A    between atoms: _448  and  _449
REMARK  184  A    between atoms: _448  and  _451
REMARK  185  A    between atoms: _451  and  _452
REMARK  186  A    between atoms: _458  and  _460
REMARK  187  A    between atoms: _460  and  _461
REMARK  188  A    between atoms: _460  and  _463
REMARK  189  A    between atoms: _463  and  _464
REMARK  190  A    between atoms: _467  and  _469
REMARK  191  A    between atoms: _469  and  _470
REMARK  192  A    between atoms: _469  and  _472
REMARK  193  A    between atoms: _472  and  _473
REMARK  194  A    between atoms: _476  and  _478
REMARK  195  A    between atoms: _478  and  _479
REMARK  196  A    between atoms: _478  and  _481
REMARK  197  A    between atoms: _481  and  _482
REMARK  198  A    between atoms: _486  and  _487
REMARK  199  A    between atoms: _492  and  _494
REMARK  200  A    between atoms: _494  and  _495
REMARK  201  A    between atoms: _494  and  _497
REMARK  202  A    between atoms: _500  and  _502
REMARK  203  A    between atoms: _502  and  _503
REMARK  204  A    between atoms: _502  and  _505
REMARK  205  A    between atoms: _505  and  _506
REMARK  206  A    between atoms: _511  and  _513
REMARK  207  A    between atoms: _513  and  _514
REMARK  208  A    between atoms: _513  and  _516
REMARK  209  A    between atoms: _516  and  _517
REMARK  210  A    between atoms: _520  and  _522
REMARK  211  A    between atoms: _522  and  _523
REMARK  212  A    between atoms: _525  and  _527
REMARK  213  A    between atoms: _527  and  _528
REMARK  214  A    between atoms: _527  and  _530
REMARK  215  A    between atoms: _530  and  _531
REMARK  216  A    between atoms: _531  and  _532
REMARK  217  A    between atoms: _532  and  _533
REMARK                            x       y       z     vdW  Elec       q    Type
REMARK                         _______ _______ _______ _____ _____    ______ ____
ROOT
ATOM      1  C   ILE A   4      10.034  19.772  10.710  0.00  0.00    +0.256 C 
ATOM      2  O   ILE A   4       9.941  19.694  11.954  0.00  0.00    -0.269 OA
ATOM      3  N   GLY A   5       9.213  19.028   9.933  0.00  0.00    -0.292 N 
ATOM      4  H   GLY A   5       9.305  19.009   8.897  0.00  0.00    +0.150 HD
ENDROOT
BRANCH   1   8
ATOM      5  C   GLY A   3      12.317  18.921   9.038  0.00  0.00    +0.246 C 
ATOM      6  O   GLY A   3      12.267  18.198  10.048  0.00  0.00    -0.273 OA
ATOM      7  N   ILE A   4      11.737  20.099   8.961  0.00  0.00    -0.282 N 
ATOM      8  CA  ILE A   4      11.026  20.664  10.067  0.00  0.00    +0.081 C 
ATOM      9  H   ILE A   4      11.797  20.635   8.072  0.00  0.00    +0.155 HD
BRANCH   8  10
ATOM     10  CB  ILE A   4      10.640  22.106   9.949  0.00  0.00    +0.041 C 
ATOM     11  CG2 ILE A   4       9.203  22.406   9.694  0.00  0.00    +0.006 C 
BRANCH  10  12
ATOM     12  CG1 ILE A   4      11.294  23.066  10.949  0.00  0.00    +0.006 C 
ATOM     13  CD1 ILE A   4      12.746  22.689  11.228  0.00  0.00    +0.000 C 
ENDBRANCH  10  12
ENDBRANCH   8  10
BRANCH   5  14
ATOM     14  CA  GLY A   3      13.025  18.412   7.793  0.00  0.00    +0.176 C 
BRANCH  14  16
ATOM     15  C   GLY A   2      14.601  16.560   7.596  0.00  0.00    +0.243 C 
ATOM     16  N   GLY A   3      13.464  17.063   8.041  0.00  0.00    -0.295 N 
ATOM     17  H   GLY A   3      12.847  16.446   8.606  0.00  0.00    +0.150 HD
ATOM     18  O   GLY A   2      15.358  17.197   6.869  0.00  0.00    -0.273 OA
BRANCH  15  19
ATOM     19  CA  GLY A   2      14.898  15.120   8.019  0.00  0.00    +0.176 C 
BRANCH  19  21
ATOM     20  C   ILE A   1      15.079  13.620   6.107  0.00  0.00    +0.238 C 
ATOM     21  N   GLY A   2      15.645  14.403   7.016  0.00  0.00    -0.296 N 
ATOM     22  H   GLY A   2      16.680  14.505   7.004  0.00  0.00    +0.150 HD
ATOM     23  O   ILE A   1      13.865  13.434   6.086  0.00  0.00    -0.274 OA
BRANCH  20  24
ATOM     24  CA  ILE A   1      16.014  12.959   5.117  0.00  0.00    +0.145 C 
BRANCH  24  25
ATOM     25  N   ILE A   1      15.539  11.619   4.725  0.00  0.00    -0.238 NA
ATOM     26  H   ILE A   1      14.607  11.491   4.282  0.00  0.00    +0.142 HD
ENDBRANCH  24  25
BRANCH  24  27
ATOM     27  CB  ILE A   1      16.200  13.833   3.872  0.00  0.00    +0.025 C 
ATOM     28  CG2 ILE A   1      17.437  13.373   3.104  0.00  0.00    +0.002 C 
BRANCH  27  29
ATOM     29  CG1 ILE A   1      14.986  13.912   2.963  0.00  0.00    +0.002 C 
ATOM     30  CD1 ILE A   1      14.846  15.260   2.270  0.00  0.00    +0.000 C 
ENDBRANCH  27  29
ENDBRANCH  24  27
ENDBRANCH  20  24
ENDBRANCH  19  21
ENDBRANCH  15  19
ENDBRANCH  14  16
ENDBRANCH   5  14
ENDBRANCH   1   8
BRANCH   3  31
ATOM     31  CA  GLY A   5       8.185  18.250  10.634  0.00  0.00    +0.176 C 
BRANCH  31  32
ATOM     32  C   GLY A   5       8.414  16.792  10.739  0.00  0.00    +0.243 C 
ATOM     33  O   GLY A   5       7.478  16.004  11.004  0.00  0.00    -0.273 OA
ATOM     34  N   GLY A   6       9.644  16.305  10.559  0.00  0.00    -0.295 N 
ATOM     35  H   GLY A   6      10.444  16.940  10.362  0.00  0.00    +0.150 HD
BRANCH  34  36
ATOM     36  CA  GLY A   6       9.842  14.854  10.645  0.00  0.00    +0.176 C 
BRANCH  36  37
ATOM     37  C   GLY A   6      10.670  14.347   9.479  0.00  0.00    +0.243 C 
ATOM     38  N   PHE A   7      10.754  13.033   9.329  0.00  0.00    -0.297 N 
ATOM     39  H   PHE A   7      10.221  12.414   9.973  0.00  0.00    +0.150 HD
ATOM     40  O   GLY A   6      11.267  15.134   8.747  0.00  0.00    -0.273 OA
BRANCH  38  41
ATOM     41  CA  PHE A   7      11.579  12.431   8.278  0.00  0.00    +0.153 C 
BRANCH  41  42
ATOM     42  C   PHE A   7      10.702  11.914   7.151  0.00  0.00    +0.241 C 
ATOM     43  O   PHE A   7       9.566  11.527   7.372  0.00  0.00    -0.273 OA
ATOM     44  N   ILE A   8      11.229  11.948   5.936  0.00  0.00    -0.298 N 
ATOM     45  H   ILE A   8      12.162  12.391   5.815  0.00  0.00    +0.150 HD
BRANCH  44  46
ATOM     46  CA  ILE A   8      10.579  11.405   4.780  0.00  0.00    +0.137 C 
BRANCH  46  47
ATOM     47  C   ILE A   8      11.635  10.468   4.082  0.00  0.00    +0.227 C 
ATOM     48  O   ILE A   8      12.819  10.671   4.283  0.00  0.00    -0.286 OA
ENDBRANCH  46  47
BRANCH  46  49
ATOM     49  CB  ILE A   8      10.123  12.402   3.734  0.00  0.00    +0.026 C 
ATOM     50  CG2 ILE A   8       8.837  13.100   4.113  0.00  0.00    +0.002 C 
BRANCH  49  51
ATOM     51  CG1 ILE A   8      11.207  13.413   3.300  0.00  0.00    +0.002 C 
ATOM     52  CD1 ILE A   8      10.841  14.161   2.027  0.00  0.00    +0.000 C 
ENDBRANCH  49  51
ENDBRANCH  46  49
ENDBRANCH  44  46
ENDBRANCH  41  42
BRANCH  41  53
ATOM     53  CB  PHE A   7      12.379  11.254   8.875  0.00  0.00    +0.055 C 
BRANCH  53  54
ATOM     54  CG  PHE A   7      13.563  11.715   9.708  0.00  0.00    -0.020 A 
ATOM     55  CD2 PHE A   7      13.406  12.011  11.051  0.00  0.00    -0.004 A 
ATOM     56  CE2 PHE A   7      14.475  12.469  11.804  0.00  0.00    -0.000 A 
ATOM     57  CZ  PHE A   7      15.711  12.647  11.218  0.00  0.00    -0.000 A 
ATOM     58  CE1 PHE A   7      15.898  12.288   9.896  0.00  0.00    -0.000 A 
ATOM     59  CD1 PHE A   7      14.812  11.859   9.143  0.00  0.00    -0.004 A 
ENDBRANCH  53  54
ENDBRANCH  41  53
ENDBRANCH  38  41
ENDBRANCH  36  37
ENDBRANCH  34  36
ENDBRANCH  31  32
ENDBRANCH   3  31
TORSDOF 23
REMARK  Name = ../refined-set-2016/1d4y/1d4y_pocket.pdb
REMARK  217 active torsions:
REMARK  status: ('A' for Active; 'I' for Inactive)
REMARK    1  A    between atoms: _1  and  _3
REMARK    2  A    between atoms: _3  and  _4
REMARK    3  A    between atoms: _3  and  _6
REMARK    4  A    between atoms: _6  and  _7
REMARK    5  A    between atoms: _7  and  _8
REMARK    6  A    between atoms: _8  and  _9
REMARK    7  A    between atoms: _18  and  _20
REMARK    8  A    between atoms: _20  and  _21
REMARK    9  A    between atoms: _20  and  _23
REMARK   10  A    between atoms: _23  and  _24
REMARK   11  A    between atoms: _27  and  _29
REMARK   12  A    between atoms: _29  and  _30
REMARK   13  A    between atoms: _29  and  _32
REMARK   14  A    between atoms: _32  and  _33
REMARK   15  A    between atoms: _36  and  _38
REMARK   16  A    between atoms: _38  and  _39
REMARK   17  A    between atoms: _38  and  _41
REMARK   18  A    between atoms: _41  and  _42
REMARK   19  A    between atoms: _45  and  _47
REMARK   20  A    between atoms: _47  and  _48
REMARK   21  A    between atoms: _47  and  _50
REMARK   22  A    between atoms: _50  and  _51
REMARK   23  A    between atoms: _54  and  _56
REMARK   24  A    between atoms: _56  and  _57
REMARK   25  A    between atoms: _56  and  _59
REMARK   26  A    between atoms: _59  and  _60
REMARK   27  A    between atoms: _63  and  _65
REMARK   28  A    between atoms: _65  and  _66
REMARK   29  A    between atoms: _68  and  _70
REMARK   30  A    between atoms: _70  and  _71
REMARK   31  A    between atoms: _74  and  _76
REMARK   32  A    between atoms: _76  and  _77
REMARK   33  A    between atoms: _76  and  _79
REMARK   34  A    between atoms: _79  and  _80
REMARK   35  A    between atoms: _83  and  _85
REMARK   36  A    between atoms: _85  and  _86
REMARK   37  A    between atoms: _85  and  _88
REMARK   38  A    between atoms: _88  and  _89
REMARK   39  A    between atoms: _92  and  _94
REMARK   40  A    between atoms: _94  and  _95
REMARK   41  A    between atoms: _94  and  _97
REMARK   42  A    between atoms: _97  and  _98
REMARK   43  A    between atoms: _101  and  _103
REMARK   44  A    between atoms: _103  and  _104
REMARK   45  A    between atoms: _103  and  _106
REMARK   46  A    between atoms: _109  and  _111
REMARK   47  A    between atoms: _111  and  _112
REMARK   48  A    between atoms: _111  and  _114
REMARK   49  A    between atoms: _114  and  _115
REMARK   50  A    between atoms: _115  and  _116
REMARK   51  A    between atoms: _116  and  _117
REMARK   52  A    between atoms: _117  and  _118
REMARK   53  A    between atoms: _122  and  _124
REMARK   54  A    between atoms: _124  and  _125
REMARK   55  A    between atoms: _124  and  _127
REMARK   56  A    between atoms: _127  and  _128
REMARK   57  A    between atoms: _128  and  _129
REMARK   58  A    between atoms: _131  and  _133
REMARK   59  A    between atoms: _133  and  _134
REMARK   60  A    between atoms: _133  and  _136
REMARK   61  A    between atoms: _136  and  _137
REMARK   62  A    between atoms: _140  and  _142
REMARK   63  A    between atoms: _142  and  _143
REMARK   64  A    between atoms: _145  and  _147
REMARK   65  A    between atoms: _147  and  _148
REMARK   66  A    between atoms: _150  and  _152
REMARK   67  A    between atoms: _152  and  _153
REMARK   68  A    between atoms: _152  and  _155
REMARK   69  A    between atoms: _155  and  _156
REMARK   70  A    between atoms: _159  and  _161
REMARK   71  A    between atoms: _161  and  _162
REMARK   72  A    between atoms: _164  and  _166
REMARK   73  A    between atoms: _166  and  _167
REMARK   74  A    between atoms: _169  and  _171
REMARK   75  A    between atoms: _171  and  _172
REMARK   76  A    between atoms: _171  and  _174
REMARK   77  A    between atoms: _174  and  _175
REMARK   78  A    between atoms: _181  and  _183
REMARK   79  A    between atoms: _183  and  _184
REMARK   80  A    between atoms: _183  and  _186
REMARK   81  A    between atoms: _186  and  _187
REMARK   82  A    between atoms: _190  and  _192
REMARK   83  A    between atoms: _192  and  _193
REMARK   84  A    between atoms: _192  and  _195
REMARK   85  A    between atoms: _198  and  _200
REMARK   86  A    between atoms: _200  and  _201
REMARK   87  A    between atoms: _200  and  _203
REMARK   88  A    between atoms: _203  and  _204
REMARK   89  A    between atoms: _207  and  _209
REMARK   90  A    between atoms: _209  and  _210
REMARK   91  A    between atoms: _209  and  _212
REMARK   92  A    between atoms: _212  and  _213
REMARK   93  A    between atoms: _217  and  _218
REMARK   94  A    between atoms: _223  and  _225
REMARK   95  A    between atoms: _225  and  _226
REMARK   96  A    between atoms: _225  and  _228
REMARK   97  A    between atoms: _231  and  _233
REMARK   98  A    between atoms: _233  and  _234
REMARK   99  A    between atoms: _233  and  _236
REMARK  100  A    between atoms: _236  and  _237
REMARK  101  A    between atoms: _242  and  _244
REMARK  102  A    between atoms: _244  and  _245
REMARK  103  A    between atoms: _244  and  _247
REMARK  104  A    between atoms: _247  and  _248
REMARK  105  A    between atoms: _251  and  _253
REMARK  106  A    between atoms: _253  and  _254
REMARK  107  A    between atoms: _253  and  _256
REMARK  108  A    between atoms: _256  and  _257
REMARK  109  A    between atoms: _260  and  _262
REMARK  110  A    between atoms: _262  and  _263
REMARK  111  A    between atoms: _265  and  _267
REMARK  112  A    between atoms: _267  and  _268
REMARK  113  A    between atoms: _267  and  _270
REMARK  114  A    between atoms: _270  and  _271
REMARK  115  A    between atoms: _271  and  _272
REMARK  116  A    between atoms: _272  and  _273
REMARK  117  A    between atoms: _282  and  _284
REMARK  118  A    between atoms: _284  and  _285
REMARK  119  A    between atoms: _284  and  _287
REMARK  120  A    between atoms: _287  and  _288
REMARK  121  A    between atoms: _293  and  _295
REMARK  122  A    between atoms: _295  and  _296
REMARK  123  A    between atoms: _295  and  _298
REMARK  124  A    between atoms: _298  and  _299
REMARK  125  A    between atoms: _299  and  _300
REMARK  126  A    between atoms: _300  and  _301
REMARK  127  A    between atoms: _311  and  _312
REMARK  128  A    between atoms: _317  and  _319
REMARK  129  A    between atoms: _319  and  _320
REMARK  130  A    between atoms: _319  and  _322
REMARK  131  A    between atoms: _322  and  _323
REMARK  132  A    between atoms: _326  and  _328
REMARK  133  A    between atoms: _328  and  _329
REMARK  134  A    between atoms: _328  and  _331
REMARK  135  A    between atoms: _331  and  _332
REMARK  136  A    between atoms: _335  and  _337
REMARK  137  A    between atoms: _337  and  _338
REMARK  138  A    between atoms: _337  and  _340
REMARK  139  A    between atoms: _340  and  _341
REMARK  140  A    between atoms: _344  and  _346
REMARK  141  A    between atoms: _346  and  _347
REMARK  142  A    between atoms: _346  and  _349
REMARK  143  A    between atoms: _349  and  _350
REMARK  144  A    between atoms: _353  and  _355
REMARK  145  A    between atoms: _355  and  _356
REMARK  146  A    between atoms: _355  and  _358
REMARK  147  A    between atoms: _358  and  _359
REMARK  148  A    between atoms: _362  and  _364
REMARK  149  A    between atoms: _364  and  _365
REMARK  150  A    between atoms: _367  and  _369
REMARK  151  A    between atoms: _369  and  _370
REMARK  152  A    between atoms: _373  and  _375
REMARK  153  A    between atoms: _375  and  _376
REMARK  154  A    between atoms: _375  and  _378
REMARK  155  A    between atoms: _378  and  _379
REMARK  156  A    between atoms: _382  and  _384
REMARK  157  A    between atoms: _384  and  _385
REMARK  158  A    between atoms: _384  and  _387
REMARK  159  A    between atoms: _387  and  _388
REMARK  160  A    between atoms: _391  and  _393
REMARK  161  A    between atoms: _393  and  _394
REMARK  162  A    between atoms: _393  and  _396
REMARK  163  A    between atoms: _396  and  _397
REMARK  164  A    between atoms: _400  and  _402
REMARK  165  A    between atoms: _402  and  _403
REMARK  166  A    between atoms: _402  and  _405
REMARK  167  A    between atoms: _408  and  _410
REMARK  168  A    between atoms: _410  and  _411
REMARK  169  A    between atoms: _410  and  _413
REMARK  170  A    between atoms: _413  and  _414
REMARK  171  A    between atoms: _417  and  _419
REMARK  172  A    between atoms: _419  and  _420
REMARK  173  A    between atoms: _422  and  _424
REMARK  174  A    between atoms: _424  and  _425
REMARK  175  A    between atoms: _429  and  _430
REMARK  176  A    between atoms: _429  and  _432
REMARK  177  A    between atoms: _432  and  _433
REMARK  178  A    between atoms: _436  and  _438
REMARK  179  A    between atoms: _438  and  _439
REMARK  180  A    between atoms: _441  and  _443
REMARK  181  A    between atoms: _443  and  _444
REMARK  182  A    between atoms: _446  and  _448
REMARK  183  A    between atoms: _448  and  _449
REMARK  184  A    between atoms: _448  and  _451
REMARK  185  A    between atoms: _451  and  _452
REMARK  186  A    between atoms: _458  and  _460
REMARK  187  A    between atoms: _460  and  _461
REMARK  188  A    between atoms: _460  and  _463
REMARK  189  A    between atoms: _463  and  _464
REMARK  190  A    between atoms: _467  and  _469
REMARK  191  A    between atoms: _469  and  _470
REMARK  192  A    between atoms: _469  and  _472
REMARK  193  A    between atoms: _472  and  _473
REMARK  194  A    between atoms: _476  and  _478
REMARK  195  A    between atoms: _478  and  _479
REMARK  196  A    between atoms: _478  and  _481
REMARK  197  A    between atoms: _481  and  _482
REMARK  198  A    between atoms: _486  and  _487
REMARK  199  A    between atoms: _492  and  _494
REMARK  200  A    between atoms: _494  and  _495
REMARK  201  A    between atoms: _494  and  _497
REMARK  202  A    between atoms: _500  and  _502
REMARK  203  A    between atoms: _502  and  _503
REMARK  204  A    between atoms: _502  and  _505
REMARK  205  A    between atoms: _505  and  _506
REMARK  206  A    between atoms: _511  and  _513
REMARK  207  A    between atoms: _513  and  _514
REMARK  208  A    between atoms: _513  and  _516
REMARK  209  A    between atoms: _516  and  _517
REMARK  210  A    between atoms: _520  and  _522
REMARK  211  A    between atoms: _522  and  _523
REMARK  212  A    between atoms: _525  and  _527
REMARK  213  A    between atoms: _527  and  _528
REMARK  214  A    between atoms: _527  and  _530
REMARK  215  A    between atoms: _530  and  _531
REMARK  216  A    between atoms: _531  and  _532
REMARK  217  A    between atoms: _532  and  _533
REMARK                            x       y       z     vdW  Elec       q    Type
REMARK                         _______ _______ _______ _____ _____    ______ ____
ROOT
ATOM      1  CA  LEU A   1      16.276  13.249  -4.297  0.00  0.00    +0.133 C 
ENDROOT
BRANCH   1   2
ATOM      2  N   LEU A   1      17.158  14.118  -5.089  0.00  0.00    -0.239 NA
ATOM      3  H   LEU A   1      17.245  15.122  -4.833  0.00  0.00    +0.142 HD
ENDBRANCH   1   2
BRANCH   1   4
ATOM      4  C   LEU A   1      14.827  13.474  -4.742  0.00  0.00    +0.224 C 
ATOM      5  O   LEU A   1      14.422  14.621  -4.978  0.00  0.00    -0.287 OA
ENDBRANCH   1   4
BRANCH   1   6
ATOM      6  CB  LEU A   1      16.445  13.551  -2.807  0.00  0.00    +0.025 C 
BRANCH   6   7
ATOM      7  CG  LEU A   1      17.909  13.523  -2.305  0.00  0.00    +0.002 C 
ATOM      8  CD2 LEU A   1      17.933  13.950  -0.830  0.00  0.00    +0.000 C 
ATOM      9  CD1 LEU A   1      18.479  12.097  -2.418  0.00  0.00    +0.000 C 
ENDBRANCH   6   7
ENDBRANCH   1   6
TORSDOF 4
REMARK  Name = ../refined-set-2016/1d4y/1d4y_pocket.pdb
REMARK  217 active torsions:
REMARK  status: ('A' for Active; 'I' for Inactive)
REMARK    1  A    between atoms: _1  and  _3
REMARK    2  A    between atoms: _3  and  _4
REMARK    3  A    between atoms: _3  and  _6
REMARK    4  A    between atoms: _6  and  _7
REMARK    5  A    between atoms: _7  and  _8
REMARK    6  A    between atoms: _8  and  _9
REMARK    7  A    between atoms: _18  and  _20
REMARK    8  A    between atoms: _20  and  _21
REMARK    9  A    between atoms: _20  and  _23
REMARK   10  A    between atoms: _23  and  _24
REMARK   11  A    between atoms: _27  and  _29
REMARK   12  A    between atoms: _29  and  _30
REMARK   13  A    between atoms: _29  and  _32
REMARK   14  A    between atoms: _32  and  _33
REMARK   15  A    between atoms: _36  and  _38
REMARK   16  A    between atoms: _38  and  _39
REMARK   17  A    between atoms: _38  and  _41
REMARK   18  A    between atoms: _41  and  _42
REMARK   19  A    between atoms: _45  and  _47
REMARK   20  A    between atoms: _47  and  _48
REMARK   21  A    between atoms: _47  and  _50
REMARK   22  A    between atoms: _50  and  _51
REMARK   23  A    between atoms: _54  and  _56
REMARK   24  A    between atoms: _56  and  _57
REMARK   25  A    between atoms: _56  and  _59
REMARK   26  A    between atoms: _59  and  _60
REMARK   27  A    between atoms: _63  and  _65
REMARK   28  A    between atoms: _65  and  _66
REMARK   29  A    between atoms: _68  and  _70
REMARK   30  A    between atoms: _70  and  _71
REMARK   31  A    between atoms: _74  and  _76
REMARK   32  A    between atoms: _76  and  _77
REMARK   33  A    between atoms: _76  and  _79
REMARK   34  A    between atoms: _79  and  _80
REMARK   35  A    between atoms: _83  and  _85
REMARK   36  A    between atoms: _85  and  _86
REMARK   37  A    between atoms: _85  and  _88
REMARK   38  A    between atoms: _88  and  _89
REMARK   39  A    between atoms: _92  and  _94
REMARK   40  A    between atoms: _94  and  _95
REMARK   41  A    between atoms: _94  and  _97
REMARK   42  A    between atoms: _97  and  _98
REMARK   43  A    between atoms: _101  and  _103
REMARK   44  A    between atoms: _103  and  _104
REMARK   45  A    between atoms: _103  and  _106
REMARK   46  A    between atoms: _109  and  _111
REMARK   47  A    between atoms: _111  and  _112
REMARK   48  A    between atoms: _111  and  _114
REMARK   49  A    between atoms: _114  and  _115
REMARK   50  A    between atoms: _115  and  _116
REMARK   51  A    between atoms: _116  and  _117
REMARK   52  A    between atoms: _117  and  _118
REMARK   53  A    between atoms: _122  and  _124
REMARK   54  A    between atoms: _124  and  _125
REMARK   55  A    between atoms: _124  and  _127
REMARK   56  A    between atoms: _127  and  _128
REMARK   57  A    between atoms: _128  and  _129
REMARK   58  A    between atoms: _131  and  _133
REMARK   59  A    between atoms: _133  and  _134
REMARK   60  A    between atoms: _133  and  _136
REMARK   61  A    between atoms: _136  and  _137
REMARK   62  A    between atoms: _140  and  _142
REMARK   63  A    between atoms: _142  and  _143
REMARK   64  A    between atoms: _145  and  _147
REMARK   65  A    between atoms: _147  and  _148
REMARK   66  A    between atoms: _150  and  _152
REMARK   67  A    between atoms: _152  and  _153
REMARK   68  A    between atoms: _152  and  _155
REMARK   69  A    between atoms: _155  and  _156
REMARK   70  A    between atoms: _159  and  _161
REMARK   71  A    between atoms: _161  and  _162
REMARK   72  A    between atoms: _164  and  _166
REMARK   73  A    between atoms: _166  and  _167
REMARK   74  A    between atoms: _169  and  _171
REMARK   75  A    between atoms: _171  and  _172
REMARK   76  A    between atoms: _171  and  _174
REMARK   77  A    between atoms: _174  and  _175
REMARK   78  A    between atoms: _181  and  _183
REMARK   79  A    between atoms: _183  and  _184
REMARK   80  A    between atoms: _183  and  _186
REMARK   81  A    between atoms: _186  and  _187
REMARK   82  A    between atoms: _190  and  _192
REMARK   83  A    between atoms: _192  and  _193
REMARK   84  A    between atoms: _192  and  _195
REMARK   85  A    between atoms: _198  and  _200
REMARK   86  A    between atoms: _200  and  _201
REMARK   87  A    between atoms: _200  and  _203
REMARK   88  A    between atoms: _203  and  _204
REMARK   89  A    between atoms: _207  and  _209
REMARK   90  A    between atoms: _209  and  _210
REMARK   91  A    between atoms: _209  and  _212
REMARK   92  A    between atoms: _212  and  _213
REMARK   93  A    between atoms: _217  and  _218
REMARK   94  A    between atoms: _223  and  _225
REMARK   95  A    between atoms: _225  and  _226
REMARK   96  A    between atoms: _225  and  _228
REMARK   97  A    between atoms: _231  and  _233
REMARK   98  A    between atoms: _233  and  _234
REMARK   99  A    between atoms: _233  and  _236
REMARK  100  A    between atoms: _236  and  _237
REMARK  101  A    between atoms: _242  and  _244
REMARK  102  A    between atoms: _244  and  _245
REMARK  103  A    between atoms: _244  and  _247
REMARK  104  A    between atoms: _247  and  _248
REMARK  105  A    between atoms: _251  and  _253
REMARK  106  A    between atoms: _253  and  _254
REMARK  107  A    between atoms: _253  and  _256
REMARK  108  A    between atoms: _256  and  _257
REMARK  109  A    between atoms: _260  and  _262
REMARK  110  A    between atoms: _262  and  _263
REMARK  111  A    between atoms: _265  and  _267
REMARK  112  A    between atoms: _267  and  _268
REMARK  113  A    between atoms: _267  and  _270
REMARK  114  A    between atoms: _270  and  _271
REMARK  115  A    between atoms: _271  and  _272
REMARK  116  A    between atoms: _272  and  _273
REMARK  117  A    between atoms: _282  and  _284
REMARK  118  A    between atoms: _284  and  _285
REMARK  119  A    between atoms: _284  and  _287
REMARK  120  A    between atoms: _287  and  _288
REMARK  121  A    between atoms: _293  and  _295
REMARK  122  A    between atoms: _295  and  _296
REMARK  123  A    between atoms: _295  and  _298
REMARK  124  A    between atoms: _298  and  _299
REMARK  125  A    between atoms: _299  and  _300
REMARK  126  A    between atoms: _300  and  _301
REMARK  127  A    between atoms: _311  and  _312
REMARK  128  A    between atoms: _317  and  _319
REMARK  129  A    between atoms: _319  and  _320
REMARK  130  A    between atoms: _319  and  _322
REMARK  131  A    between atoms: _322  and  _323
REMARK  132  A    between atoms: _326  and  _328
REMARK  133  A    between atoms: _328  and  _329
REMARK  134  A    between atoms: _328  and  _331
REMARK  135  A    between atoms: _331  and  _332
REMARK  136  A    between atoms: _335  and  _337
REMARK  137  A    between atoms: _337  and  _338
REMARK  138  A    between atoms: _337  and  _340
REMARK  139  A    between atoms: _340  and  _341
REMARK  140  A    between atoms: _344  and  _346
REMARK  141  A    between atoms: _346  and  _347
REMARK  142  A    between atoms: _346  and  _349
REMARK  143  A    between atoms: _349  and  _350
REMARK  144  A    between atoms: _353  and  _355
REMARK  145  A    between atoms: _355  and  _356
REMARK  146  A    between atoms: _355  and  _358
REMARK  147  A    between atoms: _358  and  _359
REMARK  148  A    between atoms: _362  and  _364
REMARK  149  A    between atoms: _364  and  _365
REMARK  150  A    between atoms: _367  and  _369
REMARK  151  A    between atoms: _369  and  _370
REMARK  152  A    between atoms: _373  and  _375
REMARK  153  A    between atoms: _375  and  _376
REMARK  154  A    between atoms: _375  and  _378
REMARK  155  A    between atoms: _378  and  _379
REMARK  156  A    between atoms: _382  and  _384
REMARK  157  A    between atoms: _384  and  _385
REMARK  158  A    between atoms: _384  and  _387
REMARK  159  A    between atoms: _387  and  _388
REMARK  160  A    between atoms: _391  and  _393
REMARK  161  A    between atoms: _393  and  _394
REMARK  162  A    between atoms: _393  and  _396
REMARK  163  A    between atoms: _396  and  _397
REMARK  164  A    between atoms: _400  and  _402
REMARK  165  A    between atoms: _402  and  _403
REMARK  166  A    between atoms: _402  and  _405
REMARK  167  A    between atoms: _408  and  _410
REMARK  168  A    between atoms: _410  and  _411
REMARK  169  A    between atoms: _410  and  _413
REMARK  170  A    between atoms: _413  and  _414
REMARK  171  A    between atoms: _417  and  _419
REMARK  172  A    between atoms: _419  and  _420
REMARK  173  A    between atoms: _422  and  _424
REMARK  174  A    between atoms: _424  and  _425
REMARK  175  A    between atoms: _429  and  _430
REMARK  176  A    between atoms: _429  and  _432
REMARK  177  A    between atoms: _432  and  _433
REMARK  178  A    between atoms: _436  and  _438
REMARK  179  A    between atoms: _438  and  _439
REMARK  180  A    between atoms: _441  and  _443
REMARK  181  A    between atoms: _443  and  _444
REMARK  182  A    between atoms: _446  and  _448
REMARK  183  A    between atoms: _448  and  _449
REMARK  184  A    between atoms: _448  and  _451
REMARK  185  A    between atoms: _451  and  _452
REMARK  186  A    between atoms: _458  and  _460
REMARK  187  A    between atoms: _460  and  _461
REMARK  188  A    between atoms: _460  and  _463
REMARK  189  A    between atoms: _463  and  _464
REMARK  190  A    between atoms: _467  and  _469
REMARK  191  A    between atoms: _469  and  _470
REMARK  192  A    between atoms: _469  and  _472
REMARK  193  A    between atoms: _472  and  _473
REMARK  194  A    between atoms: _476  and  _478
REMARK  195  A    between atoms: _478  and  _479
REMARK  196  A    between atoms: _478  and  _481
REMARK  197  A    between atoms: _481  and  _482
REMARK  198  A    between atoms: _486  and  _487
REMARK  199  A    between atoms: _492  and  _494
REMARK  200  A    between atoms: _494  and  _495
REMARK  201  A    between atoms: _494  and  _497
REMARK  202  A    between atoms: _500  and  _502
REMARK  203  A    between atoms: _502  and  _503
REMARK  204  A    between atoms: _502  and  _505
REMARK  205  A    between atoms: _505  and  _506
REMARK  206  A    between atoms: _511  and  _513
REMARK  207  A    between atoms: _513  and  _514
REMARK  208  A    between atoms: _513  and  _516
REMARK  209  A    between atoms: _516  and  _517
REMARK  210  A    between atoms: _520  and  _522
REMARK  211  A    between atoms: _522  and  _523
REMARK  212  A    between atoms: _525  and  _527
REMARK  213  A    between atoms: _527  and  _528
REMARK  214  A    between atoms: _527  and  _530
REMARK  215  A    between atoms: _530  and  _531
REMARK  216  A    between atoms: _531  and  _532
REMARK  217  A    between atoms: _532  and  _533
REMARK                            x       y       z     vdW  Elec       q    Type
REMARK                         _______ _______ _______ _____ _____    ______ ____
ROOT
ATOM      1  CA  VAL A   3       7.781  22.361  -3.141  0.00  0.00    +0.149 C 
ENDROOT
BRANCH   1   3
ATOM      2  C   PRO A   2       6.022  21.355  -1.784  0.00  0.00    +0.241 C 
ATOM      3  N   VAL A   3       7.316  21.520  -2.027  0.00  0.00    -0.297 N 
ATOM      4  H   VAL A   3       8.014  21.046  -1.419  0.00  0.00    +0.150 HD
ATOM      5  O   PRO A   2       5.147  21.923  -2.450  0.00  0.00    -0.273 OA
BRANCH   2  11
ATOM      6  C   THR A   1       6.907  18.438  -1.218  0.00  0.00    +0.244 C 
ATOM      7  N   PRO A   2       6.584  19.389  -0.357  0.00  0.00    -0.272 N 
ATOM      8  CD  PRO A   2       7.094  19.516   1.031  0.00  0.00    +0.094 C 
ATOM      9  CG  PRO A   2       6.760  20.951   1.362  0.00  0.00    +0.024 C 
ATOM     10  CB  PRO A   2       5.468  21.205   0.638  0.00  0.00    +0.031 C 
ATOM     11  CA  PRO A   2       5.610  20.434  -0.660  0.00  0.00    +0.152 C 
ATOM     12  O   THR A   1       6.374  18.354  -2.329  0.00  0.00    -0.273 OA
BRANCH   6  13
ATOM     13  CA  THR A   1       7.939  17.405  -0.804  0.00  0.00    +0.172 C 
BRANCH  13  14
ATOM     14  N   THR A   1       7.593  16.085  -1.390  0.00  0.00    -0.236 NA
ATOM     15  H   THR A   1       7.763  15.878  -2.395  0.00  0.00    +0.142 HD
ENDBRANCH  13  14
BRANCH  13  16
ATOM     16  CB  THR A   1       9.333  17.813  -1.368  0.00  0.00    +0.135 C 
ATOM     17  CG2 THR A   1       9.306  17.687  -2.886  0.00  0.00    +0.034 C 
BRANCH  16  18
ATOM     18  OG1 THR A   1       9.562  19.183  -1.053  0.00  0.00    -0.383 OA
ATOM     19  HG1 THR A   1       8.854  19.738  -1.465  0.00  0.00    +0.210 HD
ENDBRANCH  16  18
ENDBRANCH  13  16
ENDBRANCH   6  13
ENDBRANCH   2  11
ENDBRANCH   1   3
BRANCH   1  20
ATOM     20  C   VAL A   3       9.133  21.804  -3.623  0.00  0.00    +0.241 C 
ATOM     21  O   VAL A   3       9.804  21.136  -2.859  0.00  0.00    -0.273 OA
ATOM     22  N   ASN A   4       9.509  22.161  -4.849  0.00  0.00    -0.297 N 
ATOM     23  H   ASN A   4       8.893  22.736  -5.458  0.00  0.00    +0.150 HD
BRANCH  22  24
ATOM     24  CA  ASN A   4      10.853  21.702  -5.315  0.00  0.00    +0.158 C 
BRANCH  24  25
ATOM     25  C   ASN A   4      11.907  22.554  -4.614  0.00  0.00    +0.241 C 
ATOM     26  N   ILE A   5      12.864  21.902  -3.981  0.00  0.00    -0.298 N 
ATOM     27  H   ILE A   5      12.860  20.864  -4.041  0.00  0.00    +0.150 HD
ATOM     28  O   ASN A   4      11.780  23.797  -4.568  0.00  0.00    -0.273 OA
BRANCH  26  29
ATOM     29  CA  ILE A   5      13.914  22.521  -3.213  0.00  0.00    +0.137 C 
BRANCH  29  30
ATOM     30  C   ILE A   5      15.274  22.376  -3.846  0.00  0.00    +0.227 C 
ATOM     31  O   ILE A   5      15.794  21.278  -4.073  0.00  0.00    -0.286 OA
ENDBRANCH  29  30
BRANCH  29  32
ATOM     32  CB  ILE A   5      13.983  22.027  -1.767  0.00  0.00    +0.026 C 
ATOM     33  CG2 ILE A   5      15.170  22.596  -1.023  0.00  0.00    +0.002 C 
BRANCH  32  34
ATOM     34  CG1 ILE A   5      12.705  22.222  -0.935  0.00  0.00    +0.002 C 
ATOM     35  CD1 ILE A   5      12.503  23.664  -0.532  0.00  0.00    +0.000 C 
ENDBRANCH  32  34
ENDBRANCH  29  32
ENDBRANCH  26  29
ENDBRANCH  24  25
BRANCH  24  36
ATOM     36  CB  ASN A   4      10.940  21.784  -6.820  0.00  0.00    +0.114 C 
BRANCH  36  37
ATOM     37  CG  ASN A   4       9.978  20.851  -7.539  0.00  0.00    +0.222 C 
ATOM     38  OD1 ASN A   4       9.831  19.668  -7.194  0.00  0.00    -0.275 OA
ATOM     39  ND2 ASN A   4       9.289  21.369  -8.557  0.00  0.00    -0.329 N 
ATOM     40 HD21 ASN A   4       9.429  22.363  -8.828  0.00  0.00    +0.145 HD
ATOM     41 HD22 ASN A   4       8.611  20.779  -9.080  0.00  0.00    +0.145 HD
ENDBRANCH  36  37
ENDBRANCH  24  36
ENDBRANCH  22  24
ENDBRANCH   1  20
BRANCH   1  42
ATOM     42  CB  VAL A   3       8.115  23.798  -2.640  0.00  0.00    +0.027 C 
ATOM     43  CG2 VAL A   3       8.797  23.771  -1.313  0.00  0.00    +0.002 C 
ATOM     44  CG1 VAL A   3       7.027  24.749  -2.834  0.00  0.00    +0.002 C 
ENDBRANCH   1  42
TORSDOF 16
REMARK  Name = ../refined-set-2016/1d4y/1d4y_pocket.pdb
REMARK  217 active torsions:
REMARK  status: ('A' for Active; 'I' for Inactive)
REMARK    1  A    between atoms: _1  and  _3
REMARK    2  A    between atoms: _3  and  _4
REMARK    3  A    between atoms: _3  and  _6
REMARK    4  A    between atoms: _6  and  _7
REMARK    5  A    between atoms: _7  and  _8
REMARK    6  A    between atoms: _8  and  _9
REMARK    7  A    between atoms: _18  and  _20
REMARK    8  A    between atoms: _20  and  _21
REMARK    9  A    between atoms: _20  and  _23
REMARK   10  A    between atoms: _23  and  _24
REMARK   11  A    between atoms: _27  and  _29
REMARK   12  A    between atoms: _29  and  _30
REMARK   13  A    between atoms: _29  and  _32
REMARK   14  A    between atoms: _32  and  _33
REMARK   15  A    between atoms: _36  and  _38
REMARK   16  A    between atoms: _38  and  _39
REMARK   17  A    between atoms: _38  and  _41
REMARK   18  A    between atoms: _41  and  _42
REMARK   19  A    between atoms: _45  and  _47
REMARK   20  A    between atoms: _47  and  _48
REMARK   21  A    between atoms: _47  and  _50
REMARK   22  A    between atoms: _50  and  _51
REMARK   23  A    between atoms: _54  and  _56
REMARK   24  A    between atoms: _56  and  _57
REMARK   25  A    between atoms: _56  and  _59
REMARK   26  A    between atoms: _59  and  _60
REMARK   27  A    between atoms: _63  and  _65
REMARK   28  A    between atoms: _65  and  _66
REMARK   29  A    between atoms: _68  and  _70
REMARK   30  A    between atoms: _70  and  _71
REMARK   31  A    between atoms: _74  and  _76
REMARK   32  A    between atoms: _76  and  _77
REMARK   33  A    between atoms: _76  and  _79
REMARK   34  A    between atoms: _79  and  _80
REMARK   35  A    between atoms: _83  and  _85
REMARK   36  A    between atoms: _85  and  _86
REMARK   37  A    between atoms: _85  and  _88
REMARK   38  A    between atoms: _88  and  _89
REMARK   39  A    between atoms: _92  and  _94
REMARK   40  A    between atoms: _94  and  _95
REMARK   41  A    between atoms: _94  and  _97
REMARK   42  A    between atoms: _97  and  _98
REMARK   43  A    between atoms: _101  and  _103
REMARK   44  A    between atoms: _103  and  _104
REMARK   45  A    between atoms: _103  and  _106
REMARK   46  A    between atoms: _109  and  _111
REMARK   47  A    between atoms: _111  and  _112
REMARK   48  A    between atoms: _111  and  _114
REMARK   49  A    between atoms: _114  and  _115
REMARK   50  A    between atoms: _115  and  _116
REMARK   51  A    between atoms: _116  and  _117
REMARK   52  A    between atoms: _117  and  _118
REMARK   53  A    between atoms: _122  and  _124
REMARK   54  A    between atoms: _124  and  _125
REMARK   55  A    between atoms: _124  and  _127
REMARK   56  A    between atoms: _127  and  _128
REMARK   57  A    between atoms: _128  and  _129
REMARK   58  A    between atoms: _131  and  _133
REMARK   59  A    between atoms: _133  and  _134
REMARK   60  A    between atoms: _133  and  _136
REMARK   61  A    between atoms: _136  and  _137
REMARK   62  A    between atoms: _140  and  _142
REMARK   63  A    between atoms: _142  and  _143
REMARK   64  A    between atoms: _145  and  _147
REMARK   65  A    between atoms: _147  and  _148
REMARK   66  A    between atoms: _150  and  _152
REMARK   67  A    between atoms: _152  and  _153
REMARK   68  A    between atoms: _152  and  _155
REMARK   69  A    between atoms: _155  and  _156
REMARK   70  A    between atoms: _159  and  _161
REMARK   71  A    between atoms: _161  and  _162
REMARK   72  A    between atoms: _164  and  _166
REMARK   73  A    between atoms: _166  and  _167
REMARK   74  A    between atoms: _169  and  _171
REMARK   75  A    between atoms: _171  and  _172
REMARK   76  A    between atoms: _171  and  _174
REMARK   77  A    between atoms: _174  and  _175
REMARK   78  A    between atoms: _181  and  _183
REMARK   79  A    between atoms: _183  and  _184
REMARK   80  A    between atoms: _183  and  _186
REMARK   81  A    between atoms: _186  and  _187
REMARK   82  A    between atoms: _190  and  _192
REMARK   83  A    between atoms: _192  and  _193
REMARK   84  A    between atoms: _192  and  _195
REMARK   85  A    between atoms: _198  and  _200
REMARK   86  A    between atoms: _200  and  _201
REMARK   87  A    between atoms: _200  and  _203
REMARK   88  A    between atoms: _203  and  _204
REMARK   89  A    between atoms: _207  and  _209
REMARK   90  A    between atoms: _209  and  _210
REMARK   91  A    between atoms: _209  and  _212
REMARK   92  A    between atoms: _212  and  _213
REMARK   93  A    between atoms: _217  and  _218
REMARK   94  A    between atoms: _223  and  _225
REMARK   95  A    between atoms: _225  and  _226
REMARK   96  A    between atoms: _225  and  _228
REMARK   97  A    between atoms: _231  and  _233
REMARK   98  A    between atoms: _233  and  _234
REMARK   99  A    between atoms: _233  and  _236
REMARK  100  A    between atoms: _236  and  _237
REMARK  101  A    between atoms: _242  and  _244
REMARK  102  A    between atoms: _244  and  _245
REMARK  103  A    between atoms: _244  and  _247
REMARK  104  A    between atoms: _247  and  _248
REMARK  105  A    between atoms: _251  and  _253
REMARK  106  A    between atoms: _253  and  _254
REMARK  107  A    between atoms: _253  and  _256
REMARK  108  A    between atoms: _256  and  _257
REMARK  109  A    between atoms: _260  and  _262
REMARK  110  A    between atoms: _262  and  _263
REMARK  111  A    between atoms: _265  and  _267
REMARK  112  A    between atoms: _267  and  _268
REMARK  113  A    between atoms: _267  and  _270
REMARK  114  A    between atoms: _270  and  _271
REMARK  115  A    between atoms: _271  and  _272
REMARK  116  A    between atoms: _272  and  _273
REMARK  117  A    between atoms: _282  and  _284
REMARK  118  A    between atoms: _284  and  _285
REMARK  119  A    between atoms: _284  and  _287
REMARK  120  A    between atoms: _287  and  _288
REMARK  121  A    between atoms: _293  and  _295
REMARK  122  A    between atoms: _295  and  _296
REMARK  123  A    between atoms: _295  and  _298
REMARK  124  A    between atoms: _298  and  _299
REMARK  125  A    between atoms: _299  and  _300
REMARK  126  A    between atoms: _300  and  _301
REMARK  127  A    between atoms: _311  and  _312
REMARK  128  A    between atoms: _317  and  _319
REMARK  129  A    between atoms: _319  and  _320
REMARK  130  A    between atoms: _319  and  _322
REMARK  131  A    between atoms: _322  and  _323
REMARK  132  A    between atoms: _326  and  _328
REMARK  133  A    between atoms: _328  and  _329
REMARK  134  A    between atoms: _328  and  _331
REMARK  135  A    between atoms: _331  and  _332
REMARK  136  A    between atoms: _335  and  _337
REMARK  137  A    between atoms: _337  and  _338
REMARK  138  A    between atoms: _337  and  _340
REMARK  139  A    between atoms: _340  and  _341
REMARK  140  A    between atoms: _344  and  _346
REMARK  141  A    between atoms: _346  and  _347
REMARK  142  A    between atoms: _346  and  _349
REMARK  143  A    between atoms: _349  and  _350
REMARK  144  A    between atoms: _353  and  _355
REMARK  145  A    between atoms: _355  and  _356
REMARK  146  A    between atoms: _355  and  _358
REMARK  147  A    between atoms: _358  and  _359
REMARK  148  A    between atoms: _362  and  _364
REMARK  149  A    between atoms: _364  and  _365
REMARK  150  A    between atoms: _367  and  _369
REMARK  151  A    between atoms: _369  and  _370
REMARK  152  A    between atoms: _373  and  _375
REMARK  153  A    between atoms: _375  and  _376
REMARK  154  A    between atoms: _375  and  _378
REMARK  155  A    between atoms: _378  and  _379
REMARK  156  A    between atoms: _382  and  _384
REMARK  157  A    between atoms: _384  and  _385
REMARK  158  A    between atoms: _384  and  _387
REMARK  159  A    between atoms: _387  and  _388
REMARK  160  A    between atoms: _391  and  _393
REMARK  161  A    between atoms: _393  and  _394
REMARK  162  A    between atoms: _393  and  _396
REMARK  163  A    between atoms: _396  and  _397
REMARK  164  A    between atoms: _400  and  _402
REMARK  165  A    between atoms: _402  and  _403
REMARK  166  A    between atoms: _402  and  _405
REMARK  167  A    between atoms: _408  and  _410
REMARK  168  A    between atoms: _410  and  _411
REMARK  169  A    between atoms: _410  and  _413
REMARK  170  A    between atoms: _413  and  _414
REMARK  171  A    between atoms: _417  and  _419
REMARK  172  A    between atoms: _419  and  _420
REMARK  173  A    between atoms: _422  and  _424
REMARK  174  A    between atoms: _424  and  _425
REMARK  175  A    between atoms: _429  and  _430
REMARK  176  A    between atoms: _429  and  _432
REMARK  177  A    between atoms: _432  and  _433
REMARK  178  A    between atoms: _436  and  _438
REMARK  179  A    between atoms: _438  and  _439
REMARK  180  A    between atoms: _441  and  _443
REMARK  181  A    between atoms: _443  and  _444
REMARK  182  A    between atoms: _446  and  _448
REMARK  183  A    between atoms: _448  and  _449
REMARK  184  A    between atoms: _448  and  _451
REMARK  185  A    between atoms: _451  and  _452
REMARK  186  A    between atoms: _458  and  _460
REMARK  187  A    between atoms: _460  and  _461
REMARK  188  A    between atoms: _460  and  _463
REMARK  189  A    between atoms: _463  and  _464
REMARK  190  A    between atoms: _467  and  _469
REMARK  191  A    between atoms: _469  and  _470
REMARK  192  A    between atoms: _469  and  _472
REMARK  193  A    between atoms: _472  and  _473
REMARK  194  A    between atoms: _476  and  _478
REMARK  195  A    between atoms: _478  and  _479
REMARK  196  A    between atoms: _478  and  _481
REMARK  197  A    between atoms: _481  and  _482
REMARK  198  A    between atoms: _486  and  _487
REMARK  199  A    between atoms: _492  and  _494
REMARK  200  A    between atoms: _494  and  _495
REMARK  201  A    between atoms: _494  and  _497
REMARK  202  A    between atoms: _500  and  _502
REMARK  203  A    between atoms: _502  and  _503
REMARK  204  A    between atoms: _502  and  _505
REMARK  205  A    between atoms: _505  and  _506
REMARK  206  A    between atoms: _511  and  _513
REMARK  207  A    between atoms: _513  and  _514
REMARK  208  A    between atoms: _513  and  _516
REMARK  209  A    between atoms: _516  and  _517
REMARK  210  A    between atoms: _520  and  _522
REMARK  211  A    between atoms: _522  and  _523
REMARK  212  A    between atoms: _525  and  _527
REMARK  213  A    between atoms: _527  and  _528
REMARK  214  A    between atoms: _527  and  _530
REMARK  215  A    between atoms: _530  and  _531
REMARK  216  A    between atoms: _531  and  _532
REMARK  217  A    between atoms: _532  and  _533
REMARK                            x       y       z     vdW  Elec       q    Type
REMARK                         _______ _______ _______ _____ _____    ______ ____
ROOT
ATOM      1  CB  ARG A   2      24.138  23.265   0.322  0.00  0.00    +0.031 C 
ENDROOT
BRANCH   1   2
ATOM      2  CA  ARG A   2      23.510  23.309  -1.083  0.00  0.00    +0.137 C 
BRANCH   2   4
ATOM      3  C   GLY A   1      21.278  23.016  -2.015  0.00  0.00    +0.240 C 
ATOM      4  N   ARG A   2      22.103  23.004  -0.981  0.00  0.00    -0.298 N 
ATOM      5  H   ARG A   2      21.718  22.762  -0.046  0.00  0.00    +0.150 HD
ATOM      6  O   GLY A   1      21.654  23.177  -3.179  0.00  0.00    -0.274 OA
BRANCH   3   7
ATOM      7  CA  GLY A   1      19.806  22.768  -1.721  0.00  0.00    +0.169 C 
BRANCH   7   8
ATOM      8  N   GLY A   1      19.046  22.565  -2.962  0.00  0.00    -0.236 NA
ATOM      9  H   GLY A   1      19.130  21.682  -3.505  0.00  0.00    +0.142 HD
ENDBRANCH   7   8
ENDBRANCH   3   7
ENDBRANCH   2   4
BRANCH   2  10
ATOM     10  C   ARG A   2      24.332  22.545  -2.058  0.00  0.00    +0.227 C 
ATOM     11  O   ARG A   2      25.333  23.032  -2.625  0.00  0.00    -0.286 OA
ENDBRANCH   2  10
ENDBRANCH   1   2
BRANCH   1  12
ATOM     12  CG  ARG A   2      23.601  24.397   1.195  0.00  0.00    +0.045 C 
BRANCH  12  13
ATOM     13  CD  ARG A   2      24.442  24.461   2.474  0.00  0.00    +0.174 C 
BRANCH  13  14
ATOM     14  NE  ARG A   2      24.402  23.214   3.204  0.00  0.00    -0.265 N 
ATOM     15  HE  ARG A   2      23.544  23.023   3.760  0.00  0.00    +0.259 HD
ATOM     16  CZ  ARG A   2      25.349  22.294   3.234  0.00  0.00    +0.342 C 
ATOM     17  NH2 ARG A   2      25.164  21.182   3.954  0.00  0.00    -0.292 N 
ATOM     18 HH21 ARG A   2      24.280  21.047   4.485  0.00  0.00    +0.255 HD
ATOM     19 HH22 ARG A   2      25.904  20.452   3.983  0.00  0.00    +0.255 HD
ATOM     20  NH1 ARG A   2      26.471  22.462   2.559  0.00  0.00    -0.292 N 
ATOM     21 HH11 ARG A   2      27.210  21.731   2.589  0.00  0.00    +0.255 HD
ATOM     22 HH12 ARG A   2      26.615  23.325   1.997  0.00  0.00    +0.255 HD
ENDBRANCH  13  14
ENDBRANCH  12  13
ENDBRANCH   1  12
TORSDOF 8
REMARK  Name = ../refined-set-2016/1d4y/1d4y_pocket.pdb
REMARK  217 active torsions:
REMARK  status: ('A' for Active; 'I' for Inactive)
REMARK    1  A    between atoms: _1  and  _3
REMARK    2  A    between atoms: _3  and  _4
REMARK    3  A    between atoms: _3  and  _6
REMARK    4  A    between atoms: _6  and  _7
REMARK    5  A    between atoms: _7  and  _8
REMARK    6  A    between atoms: _8  and  _9
REMARK    7  A    between atoms: _18  and  _20
REMARK    8  A    between atoms: _20  and  _21
REMARK    9  A    between atoms: _20  and  _23
REMARK   10  A    between atoms: _23  and  _24
REMARK   11  A    between atoms: _27  and  _29
REMARK   12  A    between atoms: _29  and  _30
REMARK   13  A    between atoms: _29  and  _32
REMARK   14  A    between atoms: _32  and  _33
REMARK   15  A    between atoms: _36  and  _38
REMARK   16  A    between atoms: _38  and  _39
REMARK   17  A    between atoms: _38  and  _41
REMARK   18  A    between atoms: _41  and  _42
REMARK   19  A    between atoms: _45  and  _47
REMARK   20  A    between atoms: _47  and  _48
REMARK   21  A    between atoms: _47  and  _50
REMARK   22  A    between atoms: _50  and  _51
REMARK   23  A    between atoms: _54  and  _56
REMARK   24  A    between atoms: _56  and  _57
REMARK   25  A    between atoms: _56  and  _59
REMARK   26  A    between atoms: _59  and  _60
REMARK   27  A    between atoms: _63  and  _65
REMARK   28  A    between atoms: _65  and  _66
REMARK   29  A    between atoms: _68  and  _70
REMARK   30  A    between atoms: _70  and  _71
REMARK   31  A    between atoms: _74  and  _76
REMARK   32  A    between atoms: _76  and  _77
REMARK   33  A    between atoms: _76  and  _79
REMARK   34  A    between atoms: _79  and  _80
REMARK   35  A    between atoms: _83  and  _85
REMARK   36  A    between atoms: _85  and  _86
REMARK   37  A    between atoms: _85  and  _88
REMARK   38  A    between atoms: _88  and  _89
REMARK   39  A    between atoms: _92  and  _94
REMARK   40  A    between atoms: _94  and  _95
REMARK   41  A    between atoms: _94  and  _97
REMARK   42  A    between atoms: _97  and  _98
REMARK   43  A    between atoms: _101  and  _103
REMARK   44  A    between atoms: _103  and  _104
REMARK   45  A    between atoms: _103  and  _106
REMARK   46  A    between atoms: _109  and  _111
REMARK   47  A    between atoms: _111  and  _112
REMARK   48  A    between atoms: _111  and  _114
REMARK   49  A    between atoms: _114  and  _115
REMARK   50  A    between atoms: _115  and  _116
REMARK   51  A    between atoms: _116  and  _117
REMARK   52  A    between atoms: _117  and  _118
REMARK   53  A    between atoms: _122  and  _124
REMARK   54  A    between atoms: _124  and  _125
REMARK   55  A    between atoms: _124  and  _127
REMARK   56  A    between atoms: _127  and  _128
REMARK   57  A    between atoms: _128  and  _129
REMARK   58  A    between atoms: _131  and  _133
REMARK   59  A    between atoms: _133  and  _134
REMARK   60  A    between atoms: _133  and  _136
REMARK   61  A    between atoms: _136  and  _137
REMARK   62  A    between atoms: _140  and  _142
REMARK   63  A    between atoms: _142  and  _143
REMARK   64  A    between atoms: _145  and  _147
REMARK   65  A    between atoms: _147  and  _148
REMARK   66  A    between atoms: _150  and  _152
REMARK   67  A    between atoms: _152  and  _153
REMARK   68  A    between atoms: _152  and  _155
REMARK   69  A    between atoms: _155  and  _156
REMARK   70  A    between atoms: _159  and  _161
REMARK   71  A    between atoms: _161  and  _162
REMARK   72  A    between atoms: _164  and  _166
REMARK   73  A    between atoms: _166  and  _167
REMARK   74  A    between atoms: _169  and  _171
REMARK   75  A    between atoms: _171  and  _172
REMARK   76  A    between atoms: _171  and  _174
REMARK   77  A    between atoms: _174  and  _175
REMARK   78  A    between atoms: _181  and  _183
REMARK   79  A    between atoms: _183  and  _184
REMARK   80  A    between atoms: _183  and  _186
REMARK   81  A    between atoms: _186  and  _187
REMARK   82  A    between atoms: _190  and  _192
REMARK   83  A    between atoms: _192  and  _193
REMARK   84  A    between atoms: _192  and  _195
REMARK   85  A    between atoms: _198  and  _200
REMARK   86  A    between atoms: _200  and  _201
REMARK   87  A    between atoms: _200  and  _203
REMARK   88  A    between atoms: _203  and  _204
REMARK   89  A    between atoms: _207  and  _209
REMARK   90  A    between atoms: _209  and  _210
REMARK   91  A    between atoms: _209  and  _212
REMARK   92  A    between atoms: _212  and  _213
REMARK   93  A    between atoms: _217  and  _218
REMARK   94  A    between atoms: _223  and  _225
REMARK   95  A    between atoms: _225  and  _226
REMARK   96  A    between atoms: _225  and  _228
REMARK   97  A    between atoms: _231  and  _233
REMARK   98  A    between atoms: _233  and  _234
REMARK   99  A    between atoms: _233  and  _236
REMARK  100  A    between atoms: _236  and  _237
REMARK  101  A    between atoms: _242  and  _244
REMARK  102  A    between atoms: _244  and  _245
REMARK  103  A    between atoms: _244  and  _247
REMARK  104  A    between atoms: _247  and  _248
REMARK  105  A    between atoms: _251  and  _253
REMARK  106  A    between atoms: _253  and  _254
REMARK  107  A    between atoms: _253  and  _256
REMARK  108  A    between atoms: _256  and  _257
REMARK  109  A    between atoms: _260  and  _262
REMARK  110  A    between atoms: _262  and  _263
REMARK  111  A    between atoms: _265  and  _267
REMARK  112  A    between atoms: _267  and  _268
REMARK  113  A    between atoms: _267  and  _270
REMARK  114  A    between atoms: _270  and  _271
REMARK  115  A    between atoms: _271  and  _272
REMARK  116  A    between atoms: _272  and  _273
REMARK  117  A    between atoms: _282  and  _284
REMARK  118  A    between atoms: _284  and  _285
REMARK  119  A    between atoms: _284  and  _287
REMARK  120  A    between atoms: _287  and  _288
REMARK  121  A    between atoms: _293  and  _295
REMARK  122  A    between atoms: _295  and  _296
REMARK  123  A    between atoms: _295  and  _298
REMARK  124  A    between atoms: _298  and  _299
REMARK  125  A    between atoms: _299  and  _300
REMARK  126  A    between atoms: _300  and  _301
REMARK  127  A    between atoms: _311  and  _312
REMARK  128  A    between atoms: _317  and  _319
REMARK  129  A    between atoms: _319  and  _320
REMARK  130  A    between atoms: _319  and  _322
REMARK  131  A    between atoms: _322  and  _323
REMARK  132  A    between atoms: _326  and  _328
REMARK  133  A    between atoms: _328  and  _329
REMARK  134  A    between atoms: _328  and  _331
REMARK  135  A    between atoms: _331  and  _332
REMARK  136  A    between atoms: _335  and  _337
REMARK  137  A    between atoms: _337  and  _338
REMARK  138  A    between atoms: _337  and  _340
REMARK  139  A    between atoms: _340  and  _341
REMARK  140  A    between atoms: _344  and  _346
REMARK  141  A    between atoms: _346  and  _347
REMARK  142  A    between atoms: _346  and  _349
REMARK  143  A    between atoms: _349  and  _350
REMARK  144  A    between atoms: _353  and  _355
REMARK  145  A    between atoms: _355  and  _356
REMARK  146  A    between atoms: _355  and  _358
REMARK  147  A    between atoms: _358  and  _359
REMARK  148  A    between atoms: _362  and  _364
REMARK  149  A    between atoms: _364  and  _365
REMARK  150  A    between atoms: _367  and  _369
REMARK  151  A    between atoms: _369  and  _370
REMARK  152  A    between atoms: _373  and  _375
REMARK  153  A    between atoms: _375  and  _376
REMARK  154  A    between atoms: _375  and  _378
REMARK  155  A    between atoms: _378  and  _379
REMARK  156  A    between atoms: _382  and  _384
REMARK  157  A    between atoms: _384  and  _385
REMARK  158  A    between atoms: _384  and  _387
REMARK  159  A    between atoms: _387  and  _388
REMARK  160  A    between atoms: _391  and  _393
REMARK  161  A    between atoms: _393  and  _394
REMARK  162  A    between atoms: _393  and  _396
REMARK  163  A    between atoms: _396  and  _397
REMARK  164  A    between atoms: _400  and  _402
REMARK  165  A    between atoms: _402  and  _403
REMARK  166  A    between atoms: _402  and  _405
REMARK  167  A    between atoms: _408  and  _410
REMARK  168  A    between atoms: _410  and  _411
REMARK  169  A    between atoms: _410  and  _413
REMARK  170  A    between atoms: _413  and  _414
REMARK  171  A    between atoms: _417  and  _419
REMARK  172  A    between atoms: _419  and  _420
REMARK  173  A    between atoms: _422  and  _424
REMARK  174  A    between atoms: _424  and  _425
REMARK  175  A    between atoms: _429  and  _430
REMARK  176  A    between atoms: _429  and  _432
REMARK  177  A    between atoms: _432  and  _433
REMARK  178  A    between atoms: _436  and  _438
REMARK  179  A    between atoms: _438  and  _439
REMARK  180  A    between atoms: _441  and  _443
REMARK  181  A    between atoms: _443  and  _444
REMARK  182  A    between atoms: _446  and  _448
REMARK  183  A    between atoms: _448  and  _449
REMARK  184  A    between atoms: _448  and  _451
REMARK  185  A    between atoms: _451  and  _452
REMARK  186  A    between atoms: _458  and  _460
REMARK  187  A    between atoms: _460  and  _461
REMARK  188  A    between atoms: _460  and  _463
REMARK  189  A    between atoms: _463  and  _464
REMARK  190  A    between atoms: _467  and  _469
REMARK  191  A    between atoms: _469  and  _470
REMARK  192  A    between atoms: _469  and  _472
REMARK  193  A    between atoms: _472  and  _473
REMARK  194  A    between atoms: _476  and  _478
REMARK  195  A    between atoms: _478  and  _479
REMARK  196  A    between atoms: _478  and  _481
REMARK  197  A    between atoms: _481  and  _482
REMARK  198  A    between atoms: _486  and  _487
REMARK  199  A    between atoms: _492  and  _494
REMARK  200  A    between atoms: _494  and  _495
REMARK  201  A    between atoms: _494  and  _497
REMARK  202  A    between atoms: _500  and  _502
REMARK  203  A    between atoms: _502  and  _503
REMARK  204  A    between atoms: _502  and  _505
REMARK  205  A    between atoms: _505  and  _506
REMARK  206  A    between atoms: _511  and  _513
REMARK  207  A    between atoms: _513  and  _514
REMARK  208  A    between atoms: _513  and  _516
REMARK  209  A    between atoms: _516  and  _517
REMARK  210  A    between atoms: _520  and  _522
REMARK  211  A    between atoms: _522  and  _523
REMARK  212  A    between atoms: _525  and  _527
REMARK  213  A    between atoms: _527  and  _528
REMARK  214  A    between atoms: _527  and  _530
REMARK  215  A    between atoms: _530  and  _531
REMARK  216  A    between atoms: _531  and  _532
REMARK  217  A    between atoms: _532  and  _533
REMARK                            x       y       z     vdW  Elec       q    Type
REMARK                         _______ _______ _______ _____ _____    ______ ____
ROOT
ATOM      1  O   HOH     1      10.797  31.143   1.361  0.00  0.00    +0.000 OA
ENDROOT
TORSDOF 0
REMARK  Name = ../refined-set-2016/1d4y/1d4y_pocket.pdb
REMARK  217 active torsions:
REMARK  status: ('A' for Active; 'I' for Inactive)
REMARK    1  A    between atoms: _1  and  _3
REMARK    2  A    between atoms: _3  and  _4
REMARK    3  A    between atoms: _3  and  _6
REMARK    4  A    between atoms: _6  and  _7
REMARK    5  A    between atoms: _7  and  _8
REMARK    6  A    between atoms: _8  and  _9
REMARK    7  A    between atoms: _18  and  _20
REMARK    8  A    between atoms: _20  and  _21
REMARK    9  A    between atoms: _20  and  _23
REMARK   10  A    between atoms: _23  and  _24
REMARK   11  A    between atoms: _27  and  _29
REMARK   12  A    between atoms: _29  and  _30
REMARK   13  A    between atoms: _29  and  _32
REMARK   14  A    between atoms: _32  and  _33
REMARK   15  A    between atoms: _36  and  _38
REMARK   16  A    between atoms: _38  and  _39
REMARK   17  A    between atoms: _38  and  _41
REMARK   18  A    between atoms: _41  and  _42
REMARK   19  A    between atoms: _45  and  _47
REMARK   20  A    between atoms: _47  and  _48
REMARK   21  A    between atoms: _47  and  _50
REMARK   22  A    between atoms: _50  and  _51
REMARK   23  A    between atoms: _54  and  _56
REMARK   24  A    between atoms: _56  and  _57
REMARK   25  A    between atoms: _56  and  _59
REMARK   26  A    between atoms: _59  and  _60
REMARK   27  A    between atoms: _63  and  _65
REMARK   28  A    between atoms: _65  and  _66
REMARK   29  A    between atoms: _68  and  _70
REMARK   30  A    between atoms: _70  and  _71
REMARK   31  A    between atoms: _74  and  _76
REMARK   32  A    between atoms: _76  and  _77
REMARK   33  A    between atoms: _76  and  _79
REMARK   34  A    between atoms: _79  and  _80
REMARK   35  A    between atoms: _83  and  _85
REMARK   36  A    between atoms: _85  and  _86
REMARK   37  A    between atoms: _85  and  _88
REMARK   38  A    between atoms: _88  and  _89
REMARK   39  A    between atoms: _92  and  _94
REMARK   40  A    between atoms: _94  and  _95
REMARK   41  A    between atoms: _94  and  _97
REMARK   42  A    between atoms: _97  and  _98
REMARK   43  A    between atoms: _101  and  _103
REMARK   44  A    between atoms: _103  and  _104
REMARK   45  A    between atoms: _103  and  _106
REMARK   46  A    between atoms: _109  and  _111
REMARK   47  A    between atoms: _111  and  _112
REMARK   48  A    between atoms: _111  and  _114
REMARK   49  A    between atoms: _114  and  _115
REMARK   50  A    between atoms: _115  and  _116
REMARK   51  A    between atoms: _116  and  _117
REMARK   52  A    between atoms: _117  and  _118
REMARK   53  A    between atoms: _122  and  _124
REMARK   54  A    between atoms: _124  and  _125
REMARK   55  A    between atoms: _124  and  _127
REMARK   56  A    between atoms: _127  and  _128
REMARK   57  A    between atoms: _128  and  _129
REMARK   58  A    between atoms: _131  and  _133
REMARK   59  A    between atoms: _133  and  _134
REMARK   60  A    between atoms: _133  and  _136
REMARK   61  A    between atoms: _136  and  _137
REMARK   62  A    between atoms: _140  and  _142
REMARK   63  A    between atoms: _142  and  _143
REMARK   64  A    between atoms: _145  and  _147
REMARK   65  A    between atoms: _147  and  _148
REMARK   66  A    between atoms: _150  and  _152
REMARK   67  A    between atoms: _152  and  _153
REMARK   68  A    between atoms: _152  and  _155
REMARK   69  A    between atoms: _155  and  _156
REMARK   70  A    between atoms: _159  and  _161
REMARK   71  A    between atoms: _161  and  _162
REMARK   72  A    between atoms: _164  and  _166
REMARK   73  A    between atoms: _166  and  _167
REMARK   74  A    between atoms: _169  and  _171
REMARK   75  A    between atoms: _171  and  _172
REMARK   76  A    between atoms: _171  and  _174
REMARK   77  A    between atoms: _174  and  _175
REMARK   78  A    between atoms: _181  and  _183
REMARK   79  A    between atoms: _183  and  _184
REMARK   80  A    between atoms: _183  and  _186
REMARK   81  A    between atoms: _186  and  _187
REMARK   82  A    between atoms: _190  and  _192
REMARK   83  A    between atoms: _192  and  _193
REMARK   84  A    between atoms: _192  and  _195
REMARK   85  A    between atoms: _198  and  _200
REMARK   86  A    between atoms: _200  and  _201
REMARK   87  A    between atoms: _200  and  _203
REMARK   88  A    between atoms: _203  and  _204
REMARK   89  A    between atoms: _207  and  _209
REMARK   90  A    between atoms: _209  and  _210
REMARK   91  A    between atoms: _209  and  _212
REMARK   92  A    between atoms: _212  and  _213
REMARK   93  A    between atoms: _217  and  _218
REMARK   94  A    between atoms: _223  and  _225
REMARK   95  A    between atoms: _225  and  _226
REMARK   96  A    between atoms: _225  and  _228
REMARK   97  A    between atoms: _231  and  _233
REMARK   98  A    between atoms: _233  and  _234
REMARK   99  A    between atoms: _233  and  _236
REMARK  100  A    between atoms: _236  and  _237
REMARK  101  A    between atoms: _242  and  _244
REMARK  102  A    between atoms: _244  and  _245
REMARK  103  A    between atoms: _244  and  _247
REMARK  104  A    between atoms: _247  and  _248
REMARK  105  A    between atoms: _251  and  _253
REMARK  106  A    between atoms: _253  and  _254
REMARK  107  A    between atoms: _253  and  _256
REMARK  108  A    between atoms: _256  and  _257
REMARK  109  A    between atoms: _260  and  _262
REMARK  110  A    between atoms: _262  and  _263
REMARK  111  A    between atoms: _265  and  _267
REMARK  112  A    between atoms: _267  and  _268
REMARK  113  A    between atoms: _267  and  _270
REMARK  114  A    between atoms: _270  and  _271
REMARK  115  A    between atoms: _271  and  _272
REMARK  116  A    between atoms: _272  and  _273
REMARK  117  A    between atoms: _282  and  _284
REMARK  118  A    between atoms: _284  and  _285
REMARK  119  A    between atoms: _284  and  _287
REMARK  120  A    between atoms: _287  and  _288
REMARK  121  A    between atoms: _293  and  _295
REMARK  122  A    between atoms: _295  and  _296
REMARK  123  A    between atoms: _295  and  _298
REMARK  124  A    between atoms: _298  and  _299
REMARK  125  A    between atoms: _299  and  _300
REMARK  126  A    between atoms: _300  and  _301
REMARK  127  A    between atoms: _311  and  _312
REMARK  128  A    between atoms: _317  and  _319
REMARK  129  A    between atoms: _319  and  _320
REMARK  130  A    between atoms: _319  and  _322
REMARK  131  A    between atoms: _322  and  _323
REMARK  132  A    between atoms: _326  and  _328
REMARK  133  A    between atoms: _328  and  _329
REMARK  134  A    between atoms: _328  and  _331
REMARK  135  A    between atoms: _331  and  _332
REMARK  136  A    between atoms: _335  and  _337
REMARK  137  A    between atoms: _337  and  _338
REMARK  138  A    between atoms: _337  and  _340
REMARK  139  A    between atoms: _340  and  _341
REMARK  140  A    between atoms: _344  and  _346
REMARK  141  A    between atoms: _346  and  _347
REMARK  142  A    between atoms: _346  and  _349
REMARK  143  A    between atoms: _349  and  _350
REMARK  144  A    between atoms: _353  and  _355
REMARK  145  A    between atoms: _355  and  _356
REMARK  146  A    between atoms: _355  and  _358
REMARK  147  A    between atoms: _358  and  _359
REMARK  148  A    between atoms: _362  and  _364
REMARK  149  A    between atoms: _364  and  _365
REMARK  150  A    between atoms: _367  and  _369
REMARK  151  A    between atoms: _369  and  _370
REMARK  152  A    between atoms: _373  and  _375
REMARK  153  A    between atoms: _375  and  _376
REMARK  154  A    between atoms: _375  and  _378
REMARK  155  A    between atoms: _378  and  _379
REMARK  156  A    between atoms: _382  and  _384
REMARK  157  A    between atoms: _384  and  _385
REMARK  158  A    between atoms: _384  and  _387
REMARK  159  A    between atoms: _387  and  _388
REMARK  160  A    between atoms: _391  and  _393
REMARK  161  A    between atoms: _393  and  _394
REMARK  162  A    between atoms: _393  and  _396
REMARK  163  A    between atoms: _396  and  _397
REMARK  164  A    between atoms: _400  and  _402
REMARK  165  A    between atoms: _402  and  _403
REMARK  166  A    between atoms: _402  and  _405
REMARK  167  A    between atoms: _408  and  _410
REMARK  168  A    between atoms: _410  and  _411
REMARK  169  A    between atoms: _410  and  _413
REMARK  170  A    between atoms: _413  and  _414
REMARK  171  A    between atoms: _417  and  _419
REMARK  172  A    between atoms: _419  and  _420
REMARK  173  A    between atoms: _422  and  _424
REMARK  174  A    between atoms: _424  and  _425
REMARK  175  A    between atoms: _429  and  _430
REMARK  176  A    between atoms: _429  and  _432
REMARK  177  A    between atoms: _432  and  _433
REMARK  178  A    between atoms: _436  and  _438
REMARK  179  A    between atoms: _438  and  _439
REMARK  180  A    between atoms: _441  and  _443
REMARK  181  A    between atoms: _443  and  _444
REMARK  182  A    between atoms: _446  and  _448
REMARK  183  A    between atoms: _448  and  _449
REMARK  184  A    between atoms: _448  and  _451
REMARK  185  A    between atoms: _451  and  _452
REMARK  186  A    between atoms: _458  and  _460
REMARK  187  A    between atoms: _460  and  _461
REMARK  188  A    between atoms: _460  and  _463
REMARK  189  A    between atoms: _463  and  _464
REMARK  190  A    between atoms: _467  and  _469
REMARK  191  A    between atoms: _469  and  _470
REMARK  192  A    between atoms: _469  and  _472
REMARK  193  A    between atoms: _472  and  _473
REMARK  194  A    between atoms: _476  and  _478
REMARK  195  A    between atoms: _478  and  _479
REMARK  196  A    between atoms: _478  and  _481
REMARK  197  A    between atoms: _481  and  _482
REMARK  198  A    between atoms: _486  and  _487
REMARK  199  A    between atoms: _492  and  _494
REMARK  200  A    between atoms: _494  and  _495
REMARK  201  A    between atoms: _494  and  _497
REMARK  202  A    between atoms: _500  and  _502
REMARK  203  A    between atoms: _502  and  _503
REMARK  204  A    between atoms: _502  and  _505
REMARK  205  A    between atoms: _505  and  _506
REMARK  206  A    between atoms: _511  and  _513
REMARK  207  A    between atoms: _513  and  _514
REMARK  208  A    between atoms: _513  and  _516
REMARK  209  A    between atoms: _516  and  _517
REMARK  210  A    between atoms: _520  and  _522
REMARK  211  A    between atoms: _522  and  _523
REMARK  212  A    between atoms: _525  and  _527
REMARK  213  A    between atoms: _527  and  _528
REMARK  214  A    between atoms: _527  and  _530
REMARK  215  A    between atoms: _530  and  _531
REMARK  216  A    between atoms: _531  and  _532
REMARK  217  A    between atoms: _532  and  _533
REMARK                            x       y       z     vdW  Elec       q    Type
REMARK                         _______ _______ _______ _____ _____    ______ ____
ROOT
ATOM      1  O   HOH     1       8.814  33.941  12.124  0.00  0.00    +0.000 OA
ENDROOT
TORSDOF 0
REMARK  Name = ../refined-set-2016/1d4y/1d4y_pocket.pdb
REMARK  217 active torsions:
REMARK  status: ('A' for Active; 'I' for Inactive)
REMARK    1  A    between atoms: _1  and  _3
REMARK    2  A    between atoms: _3  and  _4
REMARK    3  A    between atoms: _3  and  _6
REMARK    4  A    between atoms: _6  and  _7
REMARK    5  A    between atoms: _7  and  _8
REMARK    6  A    between atoms: _8  and  _9
REMARK    7  A    between atoms: _18  and  _20
REMARK    8  A    between atoms: _20  and  _21
REMARK    9  A    between atoms: _20  and  _23
REMARK   10  A    between atoms: _23  and  _24
REMARK   11  A    between atoms: _27  and  _29
REMARK   12  A    between atoms: _29  and  _30
REMARK   13  A    between atoms: _29  and  _32
REMARK   14  A    between atoms: _32  and  _33
REMARK   15  A    between atoms: _36  and  _38
REMARK   16  A    between atoms: _38  and  _39
REMARK   17  A    between atoms: _38  and  _41
REMARK   18  A    between atoms: _41  and  _42
REMARK   19  A    between atoms: _45  and  _47
REMARK   20  A    between atoms: _47  and  _48
REMARK   21  A    between atoms: _47  and  _50
REMARK   22  A    between atoms: _50  and  _51
REMARK   23  A    between atoms: _54  and  _56
REMARK   24  A    between atoms: _56  and  _57
REMARK   25  A    between atoms: _56  and  _59
REMARK   26  A    between atoms: _59  and  _60
REMARK   27  A    between atoms: _63  and  _65
REMARK   28  A    between atoms: _65  and  _66
REMARK   29  A    between atoms: _68  and  _70
REMARK   30  A    between atoms: _70  and  _71
REMARK   31  A    between atoms: _74  and  _76
REMARK   32  A    between atoms: _76  and  _77
REMARK   33  A    between atoms: _76  and  _79
REMARK   34  A    between atoms: _79  and  _80
REMARK   35  A    between atoms: _83  and  _85
REMARK   36  A    between atoms: _85  and  _86
REMARK   37  A    between atoms: _85  and  _88
REMARK   38  A    between atoms: _88  and  _89
REMARK   39  A    between atoms: _92  and  _94
REMARK   40  A    between atoms: _94  and  _95
REMARK   41  A    between atoms: _94  and  _97
REMARK   42  A    between atoms: _97  and  _98
REMARK   43  A    between atoms: _101  and  _103
REMARK   44  A    between atoms: _103  and  _104
REMARK   45  A    between atoms: _103  and  _106
REMARK   46  A    between atoms: _109  and  _111
REMARK   47  A    between atoms: _111  and  _112
REMARK   48  A    between atoms: _111  and  _114
REMARK   49  A    between atoms: _114  and  _115
REMARK   50  A    between atoms: _115  and  _116
REMARK   51  A    between atoms: _116  and  _117
REMARK   52  A    between atoms: _117  and  _118
REMARK   53  A    between atoms: _122  and  _124
REMARK   54  A    between atoms: _124  and  _125
REMARK   55  A    between atoms: _124  and  _127
REMARK   56  A    between atoms: _127  and  _128
REMARK   57  A    between atoms: _128  and  _129
REMARK   58  A    between atoms: _131  and  _133
REMARK   59  A    between atoms: _133  and  _134
REMARK   60  A    between atoms: _133  and  _136
REMARK   61  A    between atoms: _136  and  _137
REMARK   62  A    between atoms: _140  and  _142
REMARK   63  A    between atoms: _142  and  _143
REMARK   64  A    between atoms: _145  and  _147
REMARK   65  A    between atoms: _147  and  _148
REMARK   66  A    between atoms: _150  and  _152
REMARK   67  A    between atoms: _152  and  _153
REMARK   68  A    between atoms: _152  and  _155
REMARK   69  A    between atoms: _155  and  _156
REMARK   70  A    between atoms: _159  and  _161
REMARK   71  A    between atoms: _161  and  _162
REMARK   72  A    between atoms: _164  and  _166
REMARK   73  A    between atoms: _166  and  _167
REMARK   74  A    between atoms: _169  and  _171
REMARK   75  A    between atoms: _171  and  _172
REMARK   76  A    between atoms: _171  and  _174
REMARK   77  A    between atoms: _174  and  _175
REMARK   78  A    between atoms: _181  and  _183
REMARK   79  A    between atoms: _183  and  _184
REMARK   80  A    between atoms: _183  and  _186
REMARK   81  A    between atoms: _186  and  _187
REMARK   82  A    between atoms: _190  and  _192
REMARK   83  A    between atoms: _192  and  _193
REMARK   84  A    between atoms: _192  and  _195
REMARK   85  A    between atoms: _198  and  _200
REMARK   86  A    between atoms: _200  and  _201
REMARK   87  A    between atoms: _200  and  _203
REMARK   88  A    between atoms: _203  and  _204
REMARK   89  A    between atoms: _207  and  _209
REMARK   90  A    between atoms: _209  and  _210
REMARK   91  A    between atoms: _209  and  _212
REMARK   92  A    between atoms: _212  and  _213
REMARK   93  A    between atoms: _217  and  _218
REMARK   94  A    between atoms: _223  and  _225
REMARK   95  A    between atoms: _225  and  _226
REMARK   96  A    between atoms: _225  and  _228
REMARK   97  A    between atoms: _231  and  _233
REMARK   98  A    between atoms: _233  and  _234
REMARK   99  A    between atoms: _233  and  _236
REMARK  100  A    between atoms: _236  and  _237
REMARK  101  A    between atoms: _242  and  _244
REMARK  102  A    between atoms: _244  and  _245
REMARK  103  A    between atoms: _244  and  _247
REMARK  104  A    between atoms: _247  and  _248
REMARK  105  A    between atoms: _251  and  _253
REMARK  106  A    between atoms: _253  and  _254
REMARK  107  A    between atoms: _253  and  _256
REMARK  108  A    between atoms: _256  and  _257
REMARK  109  A    between atoms: _260  and  _262
REMARK  110  A    between atoms: _262  and  _263
REMARK  111  A    between atoms: _265  and  _267
REMARK  112  A    between atoms: _267  and  _268
REMARK  113  A    between atoms: _267  and  _270
REMARK  114  A    between atoms: _270  and  _271
REMARK  115  A    between atoms: _271  and  _272
REMARK  116  A    between atoms: _272  and  _273
REMARK  117  A    between atoms: _282  and  _284
REMARK  118  A    between atoms: _284  and  _285
REMARK  119  A    between atoms: _284  and  _287
REMARK  120  A    between atoms: _287  and  _288
REMARK  121  A    between atoms: _293  and  _295
REMARK  122  A    between atoms: _295  and  _296
REMARK  123  A    between atoms: _295  and  _298
REMARK  124  A    between atoms: _298  and  _299
REMARK  125  A    between atoms: _299  and  _300
REMARK  126  A    between atoms: _300  and  _301
REMARK  127  A    between atoms: _311  and  _312
REMARK  128  A    between atoms: _317  and  _319
REMARK  129  A    between atoms: _319  and  _320
REMARK  130  A    between atoms: _319  and  _322
REMARK  131  A    between atoms: _322  and  _323
REMARK  132  A    between atoms: _326  and  _328
REMARK  133  A    between atoms: _328  and  _329
REMARK  134  A    between atoms: _328  and  _331
REMARK  135  A    between atoms: _331  and  _332
REMARK  136  A    between atoms: _335  and  _337
REMARK  137  A    between atoms: _337  and  _338
REMARK  138  A    between atoms: _337  and  _340
REMARK  139  A    between atoms: _340  and  _341
REMARK  140  A    between atoms: _344  and  _346
REMARK  141  A    between atoms: _346  and  _347
REMARK  142  A    between atoms: _346  and  _349
REMARK  143  A    between atoms: _349  and  _350
REMARK  144  A    between atoms: _353  and  _355
REMARK  145  A    between atoms: _355  and  _356
REMARK  146  A    between atoms: _355  and  _358
REMARK  147  A    between atoms: _358  and  _359
REMARK  148  A    between atoms: _362  and  _364
REMARK  149  A    between atoms: _364  and  _365
REMARK  150  A    between atoms: _367  and  _369
REMARK  151  A    between atoms: _369  and  _370
REMARK  152  A    between atoms: _373  and  _375
REMARK  153  A    between atoms: _375  and  _376
REMARK  154  A    between atoms: _375  and  _378
REMARK  155  A    between atoms: _378  and  _379
REMARK  156  A    between atoms: _382  and  _384
REMARK  157  A    between atoms: _384  and  _385
REMARK  158  A    between atoms: _384  and  _387
REMARK  159  A    between atoms: _387  and  _388
REMARK  160  A    between atoms: _391  and  _393
REMARK  161  A    between atoms: _393  and  _394
REMARK  162  A    between atoms: _393  and  _396
REMARK  163  A    between atoms: _396  and  _397
REMARK  164  A    between atoms: _400  and  _402
REMARK  165  A    between atoms: _402  and  _403
REMARK  166  A    between atoms: _402  and  _405
REMARK  167  A    between atoms: _408  and  _410
REMARK  168  A    between atoms: _410  and  _411
REMARK  169  A    between atoms: _410  and  _413
REMARK  170  A    between atoms: _413  and  _414
REMARK  171  A    between atoms: _417  and  _419
REMARK  172  A    between atoms: _419  and  _420
REMARK  173  A    between atoms: _422  and  _424
REMARK  174  A    between atoms: _424  and  _425
REMARK  175  A    between atoms: _429  and  _430
REMARK  176  A    between atoms: _429  and  _432
REMARK  177  A    between atoms: _432  and  _433
REMARK  178  A    between atoms: _436  and  _438
REMARK  179  A    between atoms: _438  and  _439
REMARK  180  A    between atoms: _441  and  _443
REMARK  181  A    between atoms: _443  and  _444
REMARK  182  A    between atoms: _446  and  _448
REMARK  183  A    between atoms: _448  and  _449
REMARK  184  A    between atoms: _448  and  _451
REMARK  185  A    between atoms: _451  and  _452
REMARK  186  A    between atoms: _458  and  _460
REMARK  187  A    between atoms: _460  and  _461
REMARK  188  A    between atoms: _460  and  _463
REMARK  189  A    between atoms: _463  and  _464
REMARK  190  A    between atoms: _467  and  _469
REMARK  191  A    between atoms: _469  and  _470
REMARK  192  A    between atoms: _469  and  _472
REMARK  193  A    between atoms: _472  and  _473
REMARK  194  A    between atoms: _476  and  _478
REMARK  195  A    between atoms: _478  and  _479
REMARK  196  A    between atoms: _478  and  _481
REMARK  197  A    between atoms: _481  and  _482
REMARK  198  A    between atoms: _486  and  _487
REMARK  199  A    between atoms: _492  and  _494
REMARK  200  A    between atoms: _494  and  _495
REMARK  201  A    between atoms: _494  and  _497
REMARK  202  A    between atoms: _500  and  _502
REMARK  203  A    between atoms: _502  and  _503
REMARK  204  A    between atoms: _502  and  _505
REMARK  205  A    between atoms: _505  and  _506
REMARK  206  A    between atoms: _511  and  _513
REMARK  207  A    between atoms: _513  and  _514
REMARK  208  A    between atoms: _513  and  _516
REMARK  209  A    between atoms: _516  and  _517
REMARK  210  A    between atoms: _520  and  _522
REMARK  211  A    between atoms: _522  and  _523
REMARK  212  A    between atoms: _525  and  _527
REMARK  213  A    between atoms: _527  and  _528
REMARK  214  A    between atoms: _527  and  _530
REMARK  215  A    between atoms: _530  and  _531
REMARK  216  A    between atoms: _531  and  _532
REMARK  217  A    between atoms: _532  and  _533
REMARK                            x       y       z     vdW  Elec       q    Type
REMARK                         _______ _______ _______ _____ _____    ______ ____
ROOT
ATOM      1  O   HOH     1       3.130  26.628   6.868  0.00  0.00    +0.000 OA
ENDROOT
TORSDOF 0
REMARK  Name = ../refined-set-2016/1d4y/1d4y_pocket.pdb
REMARK  217 active torsions:
REMARK  status: ('A' for Active; 'I' for Inactive)
REMARK    1  A    between atoms: _1  and  _3
REMARK    2  A    between atoms: _3  and  _4
REMARK    3  A    between atoms: _3  and  _6
REMARK    4  A    between atoms: _6  and  _7
REMARK    5  A    between atoms: _7  and  _8
REMARK    6  A    between atoms: _8  and  _9
REMARK    7  A    between atoms: _18  and  _20
REMARK    8  A    between atoms: _20  and  _21
REMARK    9  A    between atoms: _20  and  _23
REMARK   10  A    between atoms: _23  and  _24
REMARK   11  A    between atoms: _27  and  _29
REMARK   12  A    between atoms: _29  and  _30
REMARK   13  A    between atoms: _29  and  _32
REMARK   14  A    between atoms: _32  and  _33
REMARK   15  A    between atoms: _36  and  _38
REMARK   16  A    between atoms: _38  and  _39
REMARK   17  A    between atoms: _38  and  _41
REMARK   18  A    between atoms: _41  and  _42
REMARK   19  A    between atoms: _45  and  _47
REMARK   20  A    between atoms: _47  and  _48
REMARK   21  A    between atoms: _47  and  _50
REMARK   22  A    between atoms: _50  and  _51
REMARK   23  A    between atoms: _54  and  _56
REMARK   24  A    between atoms: _56  and  _57
REMARK   25  A    between atoms: _56  and  _59
REMARK   26  A    between atoms: _59  and  _60
REMARK   27  A    between atoms: _63  and  _65
REMARK   28  A    between atoms: _65  and  _66
REMARK   29  A    between atoms: _68  and  _70
REMARK   30  A    between atoms: _70  and  _71
REMARK   31  A    between atoms: _74  and  _76
REMARK   32  A    between atoms: _76  and  _77
REMARK   33  A    between atoms: _76  and  _79
REMARK   34  A    between atoms: _79  and  _80
REMARK   35  A    between atoms: _83  and  _85
REMARK   36  A    between atoms: _85  and  _86
REMARK   37  A    between atoms: _85  and  _88
REMARK   38  A    between atoms: _88  and  _89
REMARK   39  A    between atoms: _92  and  _94
REMARK   40  A    between atoms: _94  and  _95
REMARK   41  A    between atoms: _94  and  _97
REMARK   42  A    between atoms: _97  and  _98
REMARK   43  A    between atoms: _101  and  _103
REMARK   44  A    between atoms: _103  and  _104
REMARK   45  A    between atoms: _103  and  _106
REMARK   46  A    between atoms: _109  and  _111
REMARK   47  A    between atoms: _111  and  _112
REMARK   48  A    between atoms: _111  and  _114
REMARK   49  A    between atoms: _114  and  _115
REMARK   50  A    between atoms: _115  and  _116
REMARK   51  A    between atoms: _116  and  _117
REMARK   52  A    between atoms: _117  and  _118
REMARK   53  A    between atoms: _122  and  _124
REMARK   54  A    between atoms: _124  and  _125
REMARK   55  A    between atoms: _124  and  _127
REMARK   56  A    between atoms: _127  and  _128
REMARK   57  A    between atoms: _128  and  _129
REMARK   58  A    between atoms: _131  and  _133
REMARK   59  A    between atoms: _133  and  _134
REMARK   60  A    between atoms: _133  and  _136
REMARK   61  A    between atoms: _136  and  _137
REMARK   62  A    between atoms: _140  and  _142
REMARK   63  A    between atoms: _142  and  _143
REMARK   64  A    between atoms: _145  and  _147
REMARK   65  A    between atoms: _147  and  _148
REMARK   66  A    between atoms: _150  and  _152
REMARK   67  A    between atoms: _152  and  _153
REMARK   68  A    between atoms: _152  and  _155
REMARK   69  A    between atoms: _155  and  _156
REMARK   70  A    between atoms: _159  and  _161
REMARK   71  A    between atoms: _161  and  _162
REMARK   72  A    between atoms: _164  and  _166
REMARK   73  A    between atoms: _166  and  _167
REMARK   74  A    between atoms: _169  and  _171
REMARK   75  A    between atoms: _171  and  _172
REMARK   76  A    between atoms: _171  and  _174
REMARK   77  A    between atoms: _174  and  _175
REMARK   78  A    between atoms: _181  and  _183
REMARK   79  A    between atoms: _183  and  _184
REMARK   80  A    between atoms: _183  and  _186
REMARK   81  A    between atoms: _186  and  _187
REMARK   82  A    between atoms: _190  and  _192
REMARK   83  A    between atoms: _192  and  _193
REMARK   84  A    between atoms: _192  and  _195
REMARK   85  A    between atoms: _198  and  _200
REMARK   86  A    between atoms: _200  and  _201
REMARK   87  A    between atoms: _200  and  _203
REMARK   88  A    between atoms: _203  and  _204
REMARK   89  A    between atoms: _207  and  _209
REMARK   90  A    between atoms: _209  and  _210
REMARK   91  A    between atoms: _209  and  _212
REMARK   92  A    between atoms: _212  and  _213
REMARK   93  A    between atoms: _217  and  _218
REMARK   94  A    between atoms: _223  and  _225
REMARK   95  A    between atoms: _225  and  _226
REMARK   96  A    between atoms: _225  and  _228
REMARK   97  A    between atoms: _231  and  _233
REMARK   98  A    between atoms: _233  and  _234
REMARK   99  A    between atoms: _233  and  _236
REMARK  100  A    between atoms: _236  and  _237
REMARK  101  A    between atoms: _242  and  _244
REMARK  102  A    between atoms: _244  and  _245
REMARK  103  A    between atoms: _244  and  _247
REMARK  104  A    between atoms: _247  and  _248
REMARK  105  A    between atoms: _251  and  _253
REMARK  106  A    between atoms: _253  and  _254
REMARK  107  A    between atoms: _253  and  _256
REMARK  108  A    between atoms: _256  and  _257
REMARK  109  A    between atoms: _260  and  _262
REMARK  110  A    between atoms: _262  and  _263
REMARK  111  A    between atoms: _265  and  _267
REMARK  112  A    between atoms: _267  and  _268
REMARK  113  A    between atoms: _267  and  _270
REMARK  114  A    between atoms: _270  and  _271
REMARK  115  A    between atoms: _271  and  _272
REMARK  116  A    between atoms: _272  and  _273
REMARK  117  A    between atoms: _282  and  _284
REMARK  118  A    between atoms: _284  and  _285
REMARK  119  A    between atoms: _284  and  _287
REMARK  120  A    between atoms: _287  and  _288
REMARK  121  A    between atoms: _293  and  _295
REMARK  122  A    between atoms: _295  and  _296
REMARK  123  A    between atoms: _295  and  _298
REMARK  124  A    between atoms: _298  and  _299
REMARK  125  A    between atoms: _299  and  _300
REMARK  126  A    between atoms: _300  and  _301
REMARK  127  A    between atoms: _311  and  _312
REMARK  128  A    between atoms: _317  and  _319
REMARK  129  A    between atoms: _319  and  _320
REMARK  130  A    between atoms: _319  and  _322
REMARK  131  A    between atoms: _322  and  _323
REMARK  132  A    between atoms: _326  and  _328
REMARK  133  A    between atoms: _328  and  _329
REMARK  134  A    between atoms: _328  and  _331
REMARK  135  A    between atoms: _331  and  _332
REMARK  136  A    between atoms: _335  and  _337
REMARK  137  A    between atoms: _337  and  _338
REMARK  138  A    between atoms: _337  and  _340
REMARK  139  A    between atoms: _340  and  _341
REMARK  140  A    between atoms: _344  and  _346
REMARK  141  A    between atoms: _346  and  _347
REMARK  142  A    between atoms: _346  and  _349
REMARK  143  A    between atoms: _349  and  _350
REMARK  144  A    between atoms: _353  and  _355
REMARK  145  A    between atoms: _355  and  _356
REMARK  146  A    between atoms: _355  and  _358
REMARK  147  A    between atoms: _358  and  _359
REMARK  148  A    between atoms: _362  and  _364
REMARK  149  A    between atoms: _364  and  _365
REMARK  150  A    between atoms: _367  and  _369
REMARK  151  A    between atoms: _369  and  _370
REMARK  152  A    between atoms: _373  and  _375
REMARK  153  A    between atoms: _375  and  _376
REMARK  154  A    between atoms: _375  and  _378
REMARK  155  A    between atoms: _378  and  _379
REMARK  156  A    between atoms: _382  and  _384
REMARK  157  A    between atoms: _384  and  _385
REMARK  158  A    between atoms: _384  and  _387
REMARK  159  A    between atoms: _387  and  _388
REMARK  160  A    between atoms: _391  and  _393
REMARK  161  A    between atoms: _393  and  _394
REMARK  162  A    between atoms: _393  and  _396
REMARK  163  A    between atoms: _396  and  _397
REMARK  164  A    between atoms: _400  and  _402
REMARK  165  A    between atoms: _402  and  _403
REMARK  166  A    between atoms: _402  and  _405
REMARK  167  A    between atoms: _408  and  _410
REMARK  168  A    between atoms: _410  and  _411
REMARK  169  A    between atoms: _410  and  _413
REMARK  170  A    between atoms: _413  and  _414
REMARK  171  A    between atoms: _417  and  _419
REMARK  172  A    between atoms: _419  and  _420
REMARK  173  A    between atoms: _422  and  _424
REMARK  174  A    between atoms: _424  and  _425
REMARK  175  A    between atoms: _429  and  _430
REMARK  176  A    between atoms: _429  and  _432
REMARK  177  A    between atoms: _432  and  _433
REMARK  178  A    between atoms: _436  and  _438
REMARK  179  A    between atoms: _438  and  _439
REMARK  180  A    between atoms: _441  and  _443
REMARK  181  A    between atoms: _443  and  _444
REMARK  182  A    between atoms: _446  and  _448
REMARK  183  A    between atoms: _448  and  _449
REMARK  184  A    between atoms: _448  and  _451
REMARK  185  A    between atoms: _451  and  _452
REMARK  186  A    between atoms: _458  and  _460
REMARK  187  A    between atoms: _460  and  _461
REMARK  188  A    between atoms: _460  and  _463
REMARK  189  A    between atoms: _463  and  _464
REMARK  190  A    between atoms: _467  and  _469
REMARK  191  A    between atoms: _469  and  _470
REMARK  192  A    between atoms: _469  and  _472
REMARK  193  A    between atoms: _472  and  _473
REMARK  194  A    between atoms: _476  and  _478
REMARK  195  A    between atoms: _478  and  _479
REMARK  196  A    between atoms: _478  and  _481
REMARK  197  A    between atoms: _481  and  _482
REMARK  198  A    between atoms: _486  and  _487
REMARK  199  A    between atoms: _492  and  _494
REMARK  200  A    between atoms: _494  and  _495
REMARK  201  A    between atoms: _494  and  _497
REMARK  202  A    between atoms: _500  and  _502
REMARK  203  A    between atoms: _502  and  _503
REMARK  204  A    between atoms: _502  and  _505
REMARK  205  A    between atoms: _505  and  _506
REMARK  206  A    between atoms: _511  and  _513
REMARK  207  A    between atoms: _513  and  _514
REMARK  208  A    between atoms: _513  and  _516
REMARK  209  A    between atoms: _516  and  _517
REMARK  210  A    between atoms: _520  and  _522
REMARK  211  A    between atoms: _522  and  _523
REMARK  212  A    between atoms: _525  and  _527
REMARK  213  A    between atoms: _527  and  _528
REMARK  214  A    between atoms: _527  and  _530
REMARK  215  A    between atoms: _530  and  _531
REMARK  216  A    between atoms: _531  and  _532
REMARK  217  A    between atoms: _532  and  _533
REMARK                            x       y       z     vdW  Elec       q    Type
REMARK                         _______ _______ _______ _____ _____    ______ ____
ROOT
ATOM      1  O   HOH     1      20.775  25.025  15.713  0.00  0.00    +0.000 OA
ENDROOT
TORSDOF 0
REMARK  Name = ../refined-set-2016/1d4y/1d4y_pocket.pdb
REMARK  217 active torsions:
REMARK  status: ('A' for Active; 'I' for Inactive)
REMARK    1  A    between atoms: _1  and  _3
REMARK    2  A    between atoms: _3  and  _4
REMARK    3  A    between atoms: _3  and  _6
REMARK    4  A    between atoms: _6  and  _7
REMARK    5  A    between atoms: _7  and  _8
REMARK    6  A    between atoms: _8  and  _9
REMARK    7  A    between atoms: _18  and  _20
REMARK    8  A    between atoms: _20  and  _21
REMARK    9  A    between atoms: _20  and  _23
REMARK   10  A    between atoms: _23  and  _24
REMARK   11  A    between atoms: _27  and  _29
REMARK   12  A    between atoms: _29  and  _30
REMARK   13  A    between atoms: _29  and  _32
REMARK   14  A    between atoms: _32  and  _33
REMARK   15  A    between atoms: _36  and  _38
REMARK   16  A    between atoms: _38  and  _39
REMARK   17  A    between atoms: _38  and  _41
REMARK   18  A    between atoms: _41  and  _42
REMARK   19  A    between atoms: _45  and  _47
REMARK   20  A    between atoms: _47  and  _48
REMARK   21  A    between atoms: _47  and  _50
REMARK   22  A    between atoms: _50  and  _51
REMARK   23  A    between atoms: _54  and  _56
REMARK   24  A    between atoms: _56  and  _57
REMARK   25  A    between atoms: _56  and  _59
REMARK   26  A    between atoms: _59  and  _60
REMARK   27  A    between atoms: _63  and  _65
REMARK   28  A    between atoms: _65  and  _66
REMARK   29  A    between atoms: _68  and  _70
REMARK   30  A    between atoms: _70  and  _71
REMARK   31  A    between atoms: _74  and  _76
REMARK   32  A    between atoms: _76  and  _77
REMARK   33  A    between atoms: _76  and  _79
REMARK   34  A    between atoms: _79  and  _80
REMARK   35  A    between atoms: _83  and  _85
REMARK   36  A    between atoms: _85  and  _86
REMARK   37  A    between atoms: _85  and  _88
REMARK   38  A    between atoms: _88  and  _89
REMARK   39  A    between atoms: _92  and  _94
REMARK   40  A    between atoms: _94  and  _95
REMARK   41  A    between atoms: _94  and  _97
REMARK   42  A    between atoms: _97  and  _98
REMARK   43  A    between atoms: _101  and  _103
REMARK   44  A    between atoms: _103  and  _104
REMARK   45  A    between atoms: _103  and  _106
REMARK   46  A    between atoms: _109  and  _111
REMARK   47  A    between atoms: _111  and  _112
REMARK   48  A    between atoms: _111  and  _114
REMARK   49  A    between atoms: _114  and  _115
REMARK   50  A    between atoms: _115  and  _116
REMARK   51  A    between atoms: _116  and  _117
REMARK   52  A    between atoms: _117  and  _118
REMARK   53  A    between atoms: _122  and  _124
REMARK   54  A    between atoms: _124  and  _125
REMARK   55  A    between atoms: _124  and  _127
REMARK   56  A    between atoms: _127  and  _128
REMARK   57  A    between atoms: _128  and  _129
REMARK   58  A    between atoms: _131  and  _133
REMARK   59  A    between atoms: _133  and  _134
REMARK   60  A    between atoms: _133  and  _136
REMARK   61  A    between atoms: _136  and  _137
REMARK   62  A    between atoms: _140  and  _142
REMARK   63  A    between atoms: _142  and  _143
REMARK   64  A    between atoms: _145  and  _147
REMARK   65  A    between atoms: _147  and  _148
REMARK   66  A    between atoms: _150  and  _152
REMARK   67  A    between atoms: _152  and  _153
REMARK   68  A    between atoms: _152  and  _155
REMARK   69  A    between atoms: _155  and  _156
REMARK   70  A    between atoms: _159  and  _161
REMARK   71  A    between atoms: _161  and  _162
REMARK   72  A    between atoms: _164  and  _166
REMARK   73  A    between atoms: _166  and  _167
REMARK   74  A    between atoms: _169  and  _171
REMARK   75  A    between atoms: _171  and  _172
REMARK   76  A    between atoms: _171  and  _174
REMARK   77  A    between atoms: _174  and  _175
REMARK   78  A    between atoms: _181  and  _183
REMARK   79  A    between atoms: _183  and  _184
REMARK   80  A    between atoms: _183  and  _186
REMARK   81  A    between atoms: _186  and  _187
REMARK   82  A    between atoms: _190  and  _192
REMARK   83  A    between atoms: _192  and  _193
REMARK   84  A    between atoms: _192  and  _195
REMARK   85  A    between atoms: _198  and  _200
REMARK   86  A    between atoms: _200  and  _201
REMARK   87  A    between atoms: _200  and  _203
REMARK   88  A    between atoms: _203  and  _204
REMARK   89  A    between atoms: _207  and  _209
REMARK   90  A    between atoms: _209  and  _210
REMARK   91  A    between atoms: _209  and  _212
REMARK   92  A    between atoms: _212  and  _213
REMARK   93  A    between atoms: _217  and  _218
REMARK   94  A    between atoms: _223  and  _225
REMARK   95  A    between atoms: _225  and  _226
REMARK   96  A    between atoms: _225  and  _228
REMARK   97  A    between atoms: _231  and  _233
REMARK   98  A    between atoms: _233  and  _234
REMARK   99  A    between atoms: _233  and  _236
REMARK  100  A    between atoms: _236  and  _237
REMARK  101  A    between atoms: _242  and  _244
REMARK  102  A    between atoms: _244  and  _245
REMARK  103  A    between atoms: _244  and  _247
REMARK  104  A    between atoms: _247  and  _248
REMARK  105  A    between atoms: _251  and  _253
REMARK  106  A    between atoms: _253  and  _254
REMARK  107  A    between atoms: _253  and  _256
REMARK  108  A    between atoms: _256  and  _257
REMARK  109  A    between atoms: _260  and  _262
REMARK  110  A    between atoms: _262  and  _263
REMARK  111  A    between atoms: _265  and  _267
REMARK  112  A    between atoms: _267  and  _268
REMARK  113  A    between atoms: _267  and  _270
REMARK  114  A    between atoms: _270  and  _271
REMARK  115  A    between atoms: _271  and  _272
REMARK  116  A    between atoms: _272  and  _273
REMARK  117  A    between atoms: _282  and  _284
REMARK  118  A    between atoms: _284  and  _285
REMARK  119  A    between atoms: _284  and  _287
REMARK  120  A    between atoms: _287  and  _288
REMARK  121  A    between atoms: _293  and  _295
REMARK  122  A    between atoms: _295  and  _296
REMARK  123  A    between atoms: _295  and  _298
REMARK  124  A    between atoms: _298  and  _299
REMARK  125  A    between atoms: _299  and  _300
REMARK  126  A    between atoms: _300  and  _301
REMARK  127  A    between atoms: _311  and  _312
REMARK  128  A    between atoms: _317  and  _319
REMARK  129  A    between atoms: _319  and  _320
REMARK  130  A    between atoms: _319  and  _322
REMARK  131  A    between atoms: _322  and  _323
REMARK  132  A    between atoms: _326  and  _328
REMARK  133  A    between atoms: _328  and  _329
REMARK  134  A    between atoms: _328  and  _331
REMARK  135  A    between atoms: _331  and  _332
REMARK  136  A    between atoms: _335  and  _337
REMARK  137  A    between atoms: _337  and  _338
REMARK  138  A    between atoms: _337  and  _340
REMARK  139  A    between atoms: _340  and  _341
REMARK  140  A    between atoms: _344  and  _346
REMARK  141  A    between atoms: _346  and  _347
REMARK  142  A    between atoms: _346  and  _349
REMARK  143  A    between atoms: _349  and  _350
REMARK  144  A    between atoms: _353  and  _355
REMARK  145  A    between atoms: _355  and  _356
REMARK  146  A    between atoms: _355  and  _358
REMARK  147  A    between atoms: _358  and  _359
REMARK  148  A    between atoms: _362  and  _364
REMARK  149  A    between atoms: _364  and  _365
REMARK  150  A    between atoms: _367  and  _369
REMARK  151  A    between atoms: _369  and  _370
REMARK  152  A    between atoms: _373  and  _375
REMARK  153  A    between atoms: _375  and  _376
REMARK  154  A    between atoms: _375  and  _378
REMARK  155  A    between atoms: _378  and  _379
REMARK  156  A    between atoms: _382  and  _384
REMARK  157  A    between atoms: _384  and  _385
REMARK  158  A    between atoms: _384  and  _387
REMARK  159  A    between atoms: _387  and  _388
REMARK  160  A    between atoms: _391  and  _393
REMARK  161  A    between atoms: _393  and  _394
REMARK  162  A    between atoms: _393  and  _396
REMARK  163  A    between atoms: _396  and  _397
REMARK  164  A    between atoms: _400  and  _402
REMARK  165  A    between atoms: _402  and  _403
REMARK  166  A    between atoms: _402  and  _405
REMARK  167  A    between atoms: _408  and  _410
REMARK  168  A    between atoms: _410  and  _411
REMARK  169  A    between atoms: _410  and  _413
REMARK  170  A    between atoms: _413  and  _414
REMARK  171  A    between atoms: _417  and  _419
REMARK  172  A    between atoms: _419  and  _420
REMARK  173  A    between atoms: _422  and  _424
REMARK  174  A    between atoms: _424  and  _425
REMARK  175  A    between atoms: _429  and  _430
REMARK  176  A    between atoms: _429  and  _432
REMARK  177  A    between atoms: _432  and  _433
REMARK  178  A    between atoms: _436  and  _438
REMARK  179  A    between atoms: _438  and  _439
REMARK  180  A    between atoms: _441  and  _443
REMARK  181  A    between atoms: _443  and  _444
REMARK  182  A    between atoms: _446  and  _448
REMARK  183  A    between atoms: _448  and  _449
REMARK  184  A    between atoms: _448  and  _451
REMARK  185  A    between atoms: _451  and  _452
REMARK  186  A    between atoms: _458  and  _460
REMARK  187  A    between atoms: _460  and  _461
REMARK  188  A    between atoms: _460  and  _463
REMARK  189  A    between atoms: _463  and  _464
REMARK  190  A    between atoms: _467  and  _469
REMARK  191  A    between atoms: _469  and  _470
REMARK  192  A    between atoms: _469  and  _472
REMARK  193  A    between atoms: _472  and  _473
REMARK  194  A    between atoms: _476  and  _478
REMARK  195  A    between atoms: _478  and  _479
REMARK  196  A    between atoms: _478  and  _481
REMARK  197  A    between atoms: _481  and  _482
REMARK  198  A    between atoms: _486  and  _487
REMARK  199  A    between atoms: _492  and  _494
REMARK  200  A    between atoms: _494  and  _495
REMARK  201  A    between atoms: _494  and  _497
REMARK  202  A    between atoms: _500  and  _502
REMARK  203  A    between atoms: _502  and  _503
REMARK  204  A    between atoms: _502  and  _505
REMARK  205  A    between atoms: _505  and  _506
REMARK  206  A    between atoms: _511  and  _513
REMARK  207  A    between atoms: _513  and  _514
REMARK  208  A    between atoms: _513  and  _516
REMARK  209  A    between atoms: _516  and  _517
REMARK  210  A    between atoms: _520  and  _522
REMARK  211  A    between atoms: _522  and  _523
REMARK  212  A    between atoms: _525  and  _527
REMARK  213  A    between atoms: _527  and  _528
REMARK  214  A    between atoms: _527  and  _530
REMARK  215  A    between atoms: _530  and  _531
REMARK  216  A    between atoms: _531  and  _532
REMARK  217  A    between atoms: _532  and  _533
REMARK                            x       y       z     vdW  Elec       q    Type
REMARK                         _______ _______ _______ _____ _____    ______ ____
ROOT
ATOM      1  O   HOH     1       7.248  16.411   3.623  0.00  0.00    +0.000 OA
ENDROOT
TORSDOF 0
REMARK  Name = ../refined-set-2016/1d4y/1d4y_pocket.pdb
REMARK  217 active torsions:
REMARK  status: ('A' for Active; 'I' for Inactive)
REMARK    1  A    between atoms: _1  and  _3
REMARK    2  A    between atoms: _3  and  _4
REMARK    3  A    between atoms: _3  and  _6
REMARK    4  A    between atoms: _6  and  _7
REMARK    5  A    between atoms: _7  and  _8
REMARK    6  A    between atoms: _8  and  _9
REMARK    7  A    between atoms: _18  and  _20
REMARK    8  A    between atoms: _20  and  _21
REMARK    9  A    between atoms: _20  and  _23
REMARK   10  A    between atoms: _23  and  _24
REMARK   11  A    between atoms: _27  and  _29
REMARK   12  A    between atoms: _29  and  _30
REMARK   13  A    between atoms: _29  and  _32
REMARK   14  A    between atoms: _32  and  _33
REMARK   15  A    between atoms: _36  and  _38
REMARK   16  A    between atoms: _38  and  _39
REMARK   17  A    between atoms: _38  and  _41
REMARK   18  A    between atoms: _41  and  _42
REMARK   19  A    between atoms: _45  and  _47
REMARK   20  A    between atoms: _47  and  _48
REMARK   21  A    between atoms: _47  and  _50
REMARK   22  A    between atoms: _50  and  _51
REMARK   23  A    between atoms: _54  and  _56
REMARK   24  A    between atoms: _56  and  _57
REMARK   25  A    between atoms: _56  and  _59
REMARK   26  A    between atoms: _59  and  _60
REMARK   27  A    between atoms: _63  and  _65
REMARK   28  A    between atoms: _65  and  _66
REMARK   29  A    between atoms: _68  and  _70
REMARK   30  A    between atoms: _70  and  _71
REMARK   31  A    between atoms: _74  and  _76
REMARK   32  A    between atoms: _76  and  _77
REMARK   33  A    between atoms: _76  and  _79
REMARK   34  A    between atoms: _79  and  _80
REMARK   35  A    between atoms: _83  and  _85
REMARK   36  A    between atoms: _85  and  _86
REMARK   37  A    between atoms: _85  and  _88
REMARK   38  A    between atoms: _88  and  _89
REMARK   39  A    between atoms: _92  and  _94
REMARK   40  A    between atoms: _94  and  _95
REMARK   41  A    between atoms: _94  and  _97
REMARK   42  A    between atoms: _97  and  _98
REMARK   43  A    between atoms: _101  and  _103
REMARK   44  A    between atoms: _103  and  _104
REMARK   45  A    between atoms: _103  and  _106
REMARK   46  A    between atoms: _109  and  _111
REMARK   47  A    between atoms: _111  and  _112
REMARK   48  A    between atoms: _111  and  _114
REMARK   49  A    between atoms: _114  and  _115
REMARK   50  A    between atoms: _115  and  _116
REMARK   51  A    between atoms: _116  and  _117
REMARK   52  A    between atoms: _117  and  _118
REMARK   53  A    between atoms: _122  and  _124
REMARK   54  A    between atoms: _124  and  _125
REMARK   55  A    between atoms: _124  and  _127
REMARK   56  A    between atoms: _127  and  _128
REMARK   57  A    between atoms: _128  and  _129
REMARK   58  A    between atoms: _131  and  _133
REMARK   59  A    between atoms: _133  and  _134
REMARK   60  A    between atoms: _133  and  _136
REMARK   61  A    between atoms: _136  and  _137
REMARK   62  A    between atoms: _140  and  _142
REMARK   63  A    between atoms: _142  and  _143
REMARK   64  A    between atoms: _145  and  _147
REMARK   65  A    between atoms: _147  and  _148
REMARK   66  A    between atoms: _150  and  _152
REMARK   67  A    between atoms: _152  and  _153
REMARK   68  A    between atoms: _152  and  _155
REMARK   69  A    between atoms: _155  and  _156
REMARK   70  A    between atoms: _159  and  _161
REMARK   71  A    between atoms: _161  and  _162
REMARK   72  A    between atoms: _164  and  _166
REMARK   73  A    between atoms: _166  and  _167
REMARK   74  A    between atoms: _169  and  _171
REMARK   75  A    between atoms: _171  and  _172
REMARK   76  A    between atoms: _171  and  _174
REMARK   77  A    between atoms: _174  and  _175
REMARK   78  A    between atoms: _181  and  _183
REMARK   79  A    between atoms: _183  and  _184
REMARK   80  A    between atoms: _183  and  _186
REMARK   81  A    between atoms: _186  and  _187
REMARK   82  A    between atoms: _190  and  _192
REMARK   83  A    between atoms: _192  and  _193
REMARK   84  A    between atoms: _192  and  _195
REMARK   85  A    between atoms: _198  and  _200
REMARK   86  A    between atoms: _200  and  _201
REMARK   87  A    between atoms: _200  and  _203
REMARK   88  A    between atoms: _203  and  _204
REMARK   89  A    between atoms: _207  and  _209
REMARK   90  A    between atoms: _209  and  _210
REMARK   91  A    between atoms: _209  and  _212
REMARK   92  A    between atoms: _212  and  _213
REMARK   93  A    between atoms: _217  and  _218
REMARK   94  A    between atoms: _223  and  _225
REMARK   95  A    between atoms: _225  and  _226
REMARK   96  A    between atoms: _225  and  _228
REMARK   97  A    between atoms: _231  and  _233
REMARK   98  A    between atoms: _233  and  _234
REMARK   99  A    between atoms: _233  and  _236
REMARK  100  A    between atoms: _236  and  _237
REMARK  101  A    between atoms: _242  and  _244
REMARK  102  A    between atoms: _244  and  _245
REMARK  103  A    between atoms: _244  and  _247
REMARK  104  A    between atoms: _247  and  _248
REMARK  105  A    between atoms: _251  and  _253
REMARK  106  A    between atoms: _253  and  _254
REMARK  107  A    between atoms: _253  and  _256
REMARK  108  A    between atoms: _256  and  _257
REMARK  109  A    between atoms: _260  and  _262
REMARK  110  A    between atoms: _262  and  _263
REMARK  111  A    between atoms: _265  and  _267
REMARK  112  A    between atoms: _267  and  _268
REMARK  113  A    between atoms: _267  and  _270
REMARK  114  A    between atoms: _270  and  _271
REMARK  115  A    between atoms: _271  and  _272
REMARK  116  A    between atoms: _272  and  _273
REMARK  117  A    between atoms: _282  and  _284
REMARK  118  A    between atoms: _284  and  _285
REMARK  119  A    between atoms: _284  and  _287
REMARK  120  A    between atoms: _287  and  _288
REMARK  121  A    between atoms: _293  and  _295
REMARK  122  A    between atoms: _295  and  _296
REMARK  123  A    between atoms: _295  and  _298
REMARK  124  A    between atoms: _298  and  _299
REMARK  125  A    between atoms: _299  and  _300
REMARK  126  A    between atoms: _300  and  _301
REMARK  127  A    between atoms: _311  and  _312
REMARK  128  A    between atoms: _317  and  _319
REMARK  129  A    between atoms: _319  and  _320
REMARK  130  A    between atoms: _319  and  _322
REMARK  131  A    between atoms: _322  and  _323
REMARK  132  A    between atoms: _326  and  _328
REMARK  133  A    between atoms: _328  and  _329
REMARK  134  A    between atoms: _328  and  _331
REMARK  135  A    between atoms: _331  and  _332
REMARK  136  A    between atoms: _335  and  _337
REMARK  137  A    between atoms: _337  and  _338
REMARK  138  A    between atoms: _337  and  _340
REMARK  139  A    between atoms: _340  and  _341
REMARK  140  A    between atoms: _344  and  _346
REMARK  141  A    between atoms: _346  and  _347
REMARK  142  A    between atoms: _346  and  _349
REMARK  143  A    between atoms: _349  and  _350
REMARK  144  A    between atoms: _353  and  _355
REMARK  145  A    between atoms: _355  and  _356
REMARK  146  A    between atoms: _355  and  _358
REMARK  147  A    between atoms: _358  and  _359
REMARK  148  A    between atoms: _362  and  _364
REMARK  149  A    between atoms: _364  and  _365
REMARK  150  A    between atoms: _367  and  _369
REMARK  151  A    between atoms: _369  and  _370
REMARK  152  A    between atoms: _373  and  _375
REMARK  153  A    between atoms: _375  and  _376
REMARK  154  A    between atoms: _375  and  _378
REMARK  155  A    between atoms: _378  and  _379
REMARK  156  A    between atoms: _382  and  _384
REMARK  157  A    between atoms: _384  and  _385
REMARK  158  A    between atoms: _384  and  _387
REMARK  159  A    between atoms: _387  and  _388
REMARK  160  A    between atoms: _391  and  _393
REMARK  161  A    between atoms: _393  and  _394
REMARK  162  A    between atoms: _393  and  _396
REMARK  163  A    between atoms: _396  and  _397
REMARK  164  A    between atoms: _400  and  _402
REMARK  165  A    between atoms: _402  and  _403
REMARK  166  A    between atoms: _402  and  _405
REMARK  167  A    between atoms: _408  and  _410
REMARK  168  A    between atoms: _410  and  _411
REMARK  169  A    between atoms: _410  and  _413
REMARK  170  A    between atoms: _413  and  _414
REMARK  171  A    between atoms: _417  and  _419
REMARK  172  A    between atoms: _419  and  _420
REMARK  173  A    between atoms: _422  and  _424
REMARK  174  A    between atoms: _424  and  _425
REMARK  175  A    between atoms: _429  and  _430
REMARK  176  A    between atoms: _429  and  _432
REMARK  177  A    between atoms: _432  and  _433
REMARK  178  A    between atoms: _436  and  _438
REMARK  179  A    between atoms: _438  and  _439
REMARK  180  A    between atoms: _441  and  _443
REMARK  181  A    between atoms: _443  and  _444
REMARK  182  A    between atoms: _446  and  _448
REMARK  183  A    between atoms: _448  and  _449
REMARK  184  A    between atoms: _448  and  _451
REMARK  185  A    between atoms: _451  and  _452
REMARK  186  A    between atoms: _458  and  _460
REMARK  187  A    between atoms: _460  and  _461
REMARK  188  A    between atoms: _460  and  _463
REMARK  189  A    between atoms: _463  and  _464
REMARK  190  A    between atoms: _467  and  _469
REMARK  191  A    between atoms: _469  and  _470
REMARK  192  A    between atoms: _469  and  _472
REMARK  193  A    between atoms: _472  and  _473
REMARK  194  A    between atoms: _476  and  _478
REMARK  195  A    between atoms: _478  and  _479
REMARK  196  A    between atoms: _478  and  _481
REMARK  197  A    between atoms: _481  and  _482
REMARK  198  A    between atoms: _486  and  _487
REMARK  199  A    between atoms: _492  and  _494
REMARK  200  A    between atoms: _494  and  _495
REMARK  201  A    between atoms: _494  and  _497
REMARK  202  A    between atoms: _500  and  _502
REMARK  203  A    between atoms: _502  and  _503
REMARK  204  A    between atoms: _502  and  _505
REMARK  205  A    between atoms: _505  and  _506
REMARK  206  A    between atoms: _511  and  _513
REMARK  207  A    between atoms: _513  and  _514
REMARK  208  A    between atoms: _513  and  _516
REMARK  209  A    between atoms: _516  and  _517
REMARK  210  A    between atoms: _520  and  _522
REMARK  211  A    between atoms: _522  and  _523
REMARK  212  A    between atoms: _525  and  _527
REMARK  213  A    between atoms: _527  and  _528
REMARK  214  A    between atoms: _527  and  _530
REMARK  215  A    between atoms: _530  and  _531
REMARK  216  A    between atoms: _531  and  _532
REMARK  217  A    between atoms: _532  and  _533
REMARK                            x       y       z     vdW  Elec       q    Type
REMARK                         _______ _______ _______ _____ _____    ______ ____
ROOT
ATOM      1  O   HOH     1       8.643  36.226   5.388  0.00  0.00    +0.000 OA
ENDROOT
TORSDOF 0
REMARK  Name = ../refined-set-2016/1d4y/1d4y_pocket.pdb
REMARK  217 active torsions:
REMARK  status: ('A' for Active; 'I' for Inactive)
REMARK    1  A    between atoms: _1  and  _3
REMARK    2  A    between atoms: _3  and  _4
REMARK    3  A    between atoms: _3  and  _6
REMARK    4  A    between atoms: _6  and  _7
REMARK    5  A    between atoms: _7  and  _8
REMARK    6  A    between atoms: _8  and  _9
REMARK    7  A    between atoms: _18  and  _20
REMARK    8  A    between atoms: _20  and  _21
REMARK    9  A    between atoms: _20  and  _23
REMARK   10  A    between atoms: _23  and  _24
REMARK   11  A    between atoms: _27  and  _29
REMARK   12  A    between atoms: _29  and  _30
REMARK   13  A    between atoms: _29  and  _32
REMARK   14  A    between atoms: _32  and  _33
REMARK   15  A    between atoms: _36  and  _38
REMARK   16  A    between atoms: _38  and  _39
REMARK   17  A    between atoms: _38  and  _41
REMARK   18  A    between atoms: _41  and  _42
REMARK   19  A    between atoms: _45  and  _47
REMARK   20  A    between atoms: _47  and  _48
REMARK   21  A    between atoms: _47  and  _50
REMARK   22  A    between atoms: _50  and  _51
REMARK   23  A    between atoms: _54  and  _56
REMARK   24  A    between atoms: _56  and  _57
REMARK   25  A    between atoms: _56  and  _59
REMARK   26  A    between atoms: _59  and  _60
REMARK   27  A    between atoms: _63  and  _65
REMARK   28  A    between atoms: _65  and  _66
REMARK   29  A    between atoms: _68  and  _70
REMARK   30  A    between atoms: _70  and  _71
REMARK   31  A    between atoms: _74  and  _76
REMARK   32  A    between atoms: _76  and  _77
REMARK   33  A    between atoms: _76  and  _79
REMARK   34  A    between atoms: _79  and  _80
REMARK   35  A    between atoms: _83  and  _85
REMARK   36  A    between atoms: _85  and  _86
REMARK   37  A    between atoms: _85  and  _88
REMARK   38  A    between atoms: _88  and  _89
REMARK   39  A    between atoms: _92  and  _94
REMARK   40  A    between atoms: _94  and  _95
REMARK   41  A    between atoms: _94  and  _97
REMARK   42  A    between atoms: _97  and  _98
REMARK   43  A    between atoms: _101  and  _103
REMARK   44  A    between atoms: _103  and  _104
REMARK   45  A    between atoms: _103  and  _106
REMARK   46  A    between atoms: _109  and  _111
REMARK   47  A    between atoms: _111  and  _112
REMARK   48  A    between atoms: _111  and  _114
REMARK   49  A    between atoms: _114  and  _115
REMARK   50  A    between atoms: _115  and  _116
REMARK   51  A    between atoms: _116  and  _117
REMARK   52  A    between atoms: _117  and  _118
REMARK   53  A    between atoms: _122  and  _124
REMARK   54  A    between atoms: _124  and  _125
REMARK   55  A    between atoms: _124  and  _127
REMARK   56  A    between atoms: _127  and  _128
REMARK   57  A    between atoms: _128  and  _129
REMARK   58  A    between atoms: _131  and  _133
REMARK   59  A    between atoms: _133  and  _134
REMARK   60  A    between atoms: _133  and  _136
REMARK   61  A    between atoms: _136  and  _137
REMARK   62  A    between atoms: _140  and  _142
REMARK   63  A    between atoms: _142  and  _143
REMARK   64  A    between atoms: _145  and  _147
REMARK   65  A    between atoms: _147  and  _148
REMARK   66  A    between atoms: _150  and  _152
REMARK   67  A    between atoms: _152  and  _153
REMARK   68  A    between atoms: _152  and  _155
REMARK   69  A    between atoms: _155  and  _156
REMARK   70  A    between atoms: _159  and  _161
REMARK   71  A    between atoms: _161  and  _162
REMARK   72  A    between atoms: _164  and  _166
REMARK   73  A    between atoms: _166  and  _167
REMARK   74  A    between atoms: _169  and  _171
REMARK   75  A    between atoms: _171  and  _172
REMARK   76  A    between atoms: _171  and  _174
REMARK   77  A    between atoms: _174  and  _175
REMARK   78  A    between atoms: _181  and  _183
REMARK   79  A    between atoms: _183  and  _184
REMARK   80  A    between atoms: _183  and  _186
REMARK   81  A    between atoms: _186  and  _187
REMARK   82  A    between atoms: _190  and  _192
REMARK   83  A    between atoms: _192  and  _193
REMARK   84  A    between atoms: _192  and  _195
REMARK   85  A    between atoms: _198  and  _200
REMARK   86  A    between atoms: _200  and  _201
REMARK   87  A    between atoms: _200  and  _203
REMARK   88  A    between atoms: _203  and  _204
REMARK   89  A    between atoms: _207  and  _209
REMARK   90  A    between atoms: _209  and  _210
REMARK   91  A    between atoms: _209  and  _212
REMARK   92  A    between atoms: _212  and  _213
REMARK   93  A    between atoms: _217  and  _218
REMARK   94  A    between atoms: _223  and  _225
REMARK   95  A    between atoms: _225  and  _226
REMARK   96  A    between atoms: _225  and  _228
REMARK   97  A    between atoms: _231  and  _233
REMARK   98  A    between atoms: _233  and  _234
REMARK   99  A    between atoms: _233  and  _236
REMARK  100  A    between atoms: _236  and  _237
REMARK  101  A    between atoms: _242  and  _244
REMARK  102  A    between atoms: _244  and  _245
REMARK  103  A    between atoms: _244  and  _247
REMARK  104  A    between atoms: _247  and  _248
REMARK  105  A    between atoms: _251  and  _253
REMARK  106  A    between atoms: _253  and  _254
REMARK  107  A    between atoms: _253  and  _256
REMARK  108  A    between atoms: _256  and  _257
REMARK  109  A    between atoms: _260  and  _262
REMARK  110  A    between atoms: _262  and  _263
REMARK  111  A    between atoms: _265  and  _267
REMARK  112  A    between atoms: _267  and  _268
REMARK  113  A    between atoms: _267  and  _270
REMARK  114  A    between atoms: _270  and  _271
REMARK  115  A    between atoms: _271  and  _272
REMARK  116  A    between atoms: _272  and  _273
REMARK  117  A    between atoms: _282  and  _284
REMARK  118  A    between atoms: _284  and  _285
REMARK  119  A    between atoms: _284  and  _287
REMARK  120  A    between atoms: _287  and  _288
REMARK  121  A    between atoms: _293  and  _295
REMARK  122  A    between atoms: _295  and  _296
REMARK  123  A    between atoms: _295  and  _298
REMARK  124  A    between atoms: _298  and  _299
REMARK  125  A    between atoms: _299  and  _300
REMARK  126  A    between atoms: _300  and  _301
REMARK  127  A    between atoms: _311  and  _312
REMARK  128  A    between atoms: _317  and  _319
REMARK  129  A    between atoms: _319  and  _320
REMARK  130  A    between atoms: _319  and  _322
REMARK  131  A    between atoms: _322  and  _323
REMARK  132  A    between atoms: _326  and  _328
REMARK  133  A    between atoms: _328  and  _329
REMARK  134  A    between atoms: _328  and  _331
REMARK  135  A    between atoms: _331  and  _332
REMARK  136  A    between atoms: _335  and  _337
REMARK  137  A    between atoms: _337  and  _338
REMARK  138  A    between atoms: _337  and  _340
REMARK  139  A    between atoms: _340  and  _341
REMARK  140  A    between atoms: _344  and  _346
REMARK  141  A    between atoms: _346  and  _347
REMARK  142  A    between atoms: _346  and  _349
REMARK  143  A    between atoms: _349  and  _350
REMARK  144  A    between atoms: _353  and  _355
REMARK  145  A    between atoms: _355  and  _356
REMARK  146  A    between atoms: _355  and  _358
REMARK  147  A    between atoms: _358  and  _359
REMARK  148  A    between atoms: _362  and  _364
REMARK  149  A    between atoms: _364  and  _365
REMARK  150  A    between atoms: _367  and  _369
REMARK  151  A    between atoms: _369  and  _370
REMARK  152  A    between atoms: _373  and  _375
REMARK  153  A    between atoms: _375  and  _376
REMARK  154  A    between atoms: _375  and  _378
REMARK  155  A    between atoms: _378  and  _379
REMARK  156  A    between atoms: _382  and  _384
REMARK  157  A    between atoms: _384  and  _385
REMARK  158  A    between atoms: _384  and  _387
REMARK  159  A    between atoms: _387  and  _388
REMARK  160  A    between atoms: _391  and  _393
REMARK  161  A    between atoms: _393  and  _394
REMARK  162  A    between atoms: _393  and  _396
REMARK  163  A    between atoms: _396  and  _397
REMARK  164  A    between atoms: _400  and  _402
REMARK  165  A    between atoms: _402  and  _403
REMARK  166  A    between atoms: _402  and  _405
REMARK  167  A    between atoms: _408  and  _410
REMARK  168  A    between atoms: _410  and  _411
REMARK  169  A    between atoms: _410  and  _413
REMARK  170  A    between atoms: _413  and  _414
REMARK  171  A    between atoms: _417  and  _419
REMARK  172  A    between atoms: _419  and  _420
REMARK  173  A    between atoms: _422  and  _424
REMARK  174  A    between atoms: _424  and  _425
REMARK  175  A    between atoms: _429  and  _430
REMARK  176  A    between atoms: _429  and  _432
REMARK  177  A    between atoms: _432  and  _433
REMARK  178  A    between atoms: _436  and  _438
REMARK  179  A    between atoms: _438  and  _439
REMARK  180  A    between atoms: _441  and  _443
REMARK  181  A    between atoms: _443  and  _444
REMARK  182  A    between atoms: _446  and  _448
REMARK  183  A    between atoms: _448  and  _449
REMARK  184  A    between atoms: _448  and  _451
REMARK  185  A    between atoms: _451  and  _452
REMARK  186  A    between atoms: _458  and  _460
REMARK  187  A    between atoms: _460  and  _461
REMARK  188  A    between atoms: _460  and  _463
REMARK  189  A    between atoms: _463  and  _464
REMARK  190  A    between atoms: _467  and  _469
REMARK  191  A    between atoms: _469  and  _470
REMARK  192  A    between atoms: _469  and  _472
REMARK  193  A    between atoms: _472  and  _473
REMARK  194  A    between atoms: _476  and  _478
REMARK  195  A    between atoms: _478  and  _479
REMARK  196  A    between atoms: _478  and  _481
REMARK  197  A    between atoms: _481  and  _482
REMARK  198  A    between atoms: _486  and  _487
REMARK  199  A    between atoms: _492  and  _494
REMARK  200  A    between atoms: _494  and  _495
REMARK  201  A    between atoms: _494  and  _497
REMARK  202  A    between atoms: _500  and  _502
REMARK  203  A    between atoms: _502  and  _503
REMARK  204  A    between atoms: _502  and  _505
REMARK  205  A    between atoms: _505  and  _506
REMARK  206  A    between atoms: _511  and  _513
REMARK  207  A    between atoms: _513  and  _514
REMARK  208  A    between atoms: _513  and  _516
REMARK  209  A    between atoms: _516  and  _517
REMARK  210  A    between atoms: _520  and  _522
REMARK  211  A    between atoms: _522  and  _523
REMARK  212  A    between atoms: _525  and  _527
REMARK  213  A    between atoms: _527  and  _528
REMARK  214  A    between atoms: _527  and  _530
REMARK  215  A    between atoms: _530  and  _531
REMARK  216  A    between atoms: _531  and  _532
REMARK  217  A    between atoms: _532  and  _533
REMARK                            x       y       z     vdW  Elec       q    Type
REMARK                         _______ _______ _______ _____ _____    ______ ____
ROOT
ATOM      1  O   HOH     1       4.202  30.340   5.061  0.00  0.00    +0.000 OA
ENDROOT
TORSDOF 0
REMARK  Name = ../refined-set-2016/1d4y/1d4y_pocket.pdb
REMARK  217 active torsions:
REMARK  status: ('A' for Active; 'I' for Inactive)
REMARK    1  A    between atoms: _1  and  _3
REMARK    2  A    between atoms: _3  and  _4
REMARK    3  A    between atoms: _3  and  _6
REMARK    4  A    between atoms: _6  and  _7
REMARK    5  A    between atoms: _7  and  _8
REMARK    6  A    between atoms: _8  and  _9
REMARK    7  A    between atoms: _18  and  _20
REMARK    8  A    between atoms: _20  and  _21
REMARK    9  A    between atoms: _20  and  _23
REMARK   10  A    between atoms: _23  and  _24
REMARK   11  A    between atoms: _27  and  _29
REMARK   12  A    between atoms: _29  and  _30
REMARK   13  A    between atoms: _29  and  _32
REMARK   14  A    between atoms: _32  and  _33
REMARK   15  A    between atoms: _36  and  _38
REMARK   16  A    between atoms: _38  and  _39
REMARK   17  A    between atoms: _38  and  _41
REMARK   18  A    between atoms: _41  and  _42
REMARK   19  A    between atoms: _45  and  _47
REMARK   20  A    between atoms: _47  and  _48
REMARK   21  A    between atoms: _47  and  _50
REMARK   22  A    between atoms: _50  and  _51
REMARK   23  A    between atoms: _54  and  _56
REMARK   24  A    between atoms: _56  and  _57
REMARK   25  A    between atoms: _56  and  _59
REMARK   26  A    between atoms: _59  and  _60
REMARK   27  A    between atoms: _63  and  _65
REMARK   28  A    between atoms: _65  and  _66
REMARK   29  A    between atoms: _68  and  _70
REMARK   30  A    between atoms: _70  and  _71
REMARK   31  A    between atoms: _74  and  _76
REMARK   32  A    between atoms: _76  and  _77
REMARK   33  A    between atoms: _76  and  _79
REMARK   34  A    between atoms: _79  and  _80
REMARK   35  A    between atoms: _83  and  _85
REMARK   36  A    between atoms: _85  and  _86
REMARK   37  A    between atoms: _85  and  _88
REMARK   38  A    between atoms: _88  and  _89
REMARK   39  A    between atoms: _92  and  _94
REMARK   40  A    between atoms: _94  and  _95
REMARK   41  A    between atoms: _94  and  _97
REMARK   42  A    between atoms: _97  and  _98
REMARK   43  A    between atoms: _101  and  _103
REMARK   44  A    between atoms: _103  and  _104
REMARK   45  A    between atoms: _103  and  _106
REMARK   46  A    between atoms: _109  and  _111
REMARK   47  A    between atoms: _111  and  _112
REMARK   48  A    between atoms: _111  and  _114
REMARK   49  A    between atoms: _114  and  _115
REMARK   50  A    between atoms: _115  and  _116
REMARK   51  A    between atoms: _116  and  _117
REMARK   52  A    between atoms: _117  and  _118
REMARK   53  A    between atoms: _122  and  _124
REMARK   54  A    between atoms: _124  and  _125
REMARK   55  A    between atoms: _124  and  _127
REMARK   56  A    between atoms: _127  and  _128
REMARK   57  A    between atoms: _128  and  _129
REMARK   58  A    between atoms: _131  and  _133
REMARK   59  A    between atoms: _133  and  _134
REMARK   60  A    between atoms: _133  and  _136
REMARK   61  A    between atoms: _136  and  _137
REMARK   62  A    between atoms: _140  and  _142
REMARK   63  A    between atoms: _142  and  _143
REMARK   64  A    between atoms: _145  and  _147
REMARK   65  A    between atoms: _147  and  _148
REMARK   66  A    between atoms: _150  and  _152
REMARK   67  A    between atoms: _152  and  _153
REMARK   68  A    between atoms: _152  and  _155
REMARK   69  A    between atoms: _155  and  _156
REMARK   70  A    between atoms: _159  and  _161
REMARK   71  A    between atoms: _161  and  _162
REMARK   72  A    between atoms: _164  and  _166
REMARK   73  A    between atoms: _166  and  _167
REMARK   74  A    between atoms: _169  and  _171
REMARK   75  A    between atoms: _171  and  _172
REMARK   76  A    between atoms: _171  and  _174
REMARK   77  A    between atoms: _174  and  _175
REMARK   78  A    between atoms: _181  and  _183
REMARK   79  A    between atoms: _183  and  _184
REMARK   80  A    between atoms: _183  and  _186
REMARK   81  A    between atoms: _186  and  _187
REMARK   82  A    between atoms: _190  and  _192
REMARK   83  A    between atoms: _192  and  _193
REMARK   84  A    between atoms: _192  and  _195
REMARK   85  A    between atoms: _198  and  _200
REMARK   86  A    between atoms: _200  and  _201
REMARK   87  A    between atoms: _200  and  _203
REMARK   88  A    between atoms: _203  and  _204
REMARK   89  A    between atoms: _207  and  _209
REMARK   90  A    between atoms: _209  and  _210
REMARK   91  A    between atoms: _209  and  _212
REMARK   92  A    between atoms: _212  and  _213
REMARK   93  A    between atoms: _217  and  _218
REMARK   94  A    between atoms: _223  and  _225
REMARK   95  A    between atoms: _225  and  _226
REMARK   96  A    between atoms: _225  and  _228
REMARK   97  A    between atoms: _231  and  _233
REMARK   98  A    between atoms: _233  and  _234
REMARK   99  A    between atoms: _233  and  _236
REMARK  100  A    between atoms: _236  and  _237
REMARK  101  A    between atoms: _242  and  _244
REMARK  102  A    between atoms: _244  and  _245
REMARK  103  A    between atoms: _244  and  _247
REMARK  104  A    between atoms: _247  and  _248
REMARK  105  A    between atoms: _251  and  _253
REMARK  106  A    between atoms: _253  and  _254
REMARK  107  A    between atoms: _253  and  _256
REMARK  108  A    between atoms: _256  and  _257
REMARK  109  A    between atoms: _260  and  _262
REMARK  110  A    between atoms: _262  and  _263
REMARK  111  A    between atoms: _265  and  _267
REMARK  112  A    between atoms: _267  and  _268
REMARK  113  A    between atoms: _267  and  _270
REMARK  114  A    between atoms: _270  and  _271
REMARK  115  A    between atoms: _271  and  _272
REMARK  116  A    between atoms: _272  and  _273
REMARK  117  A    between atoms: _282  and  _284
REMARK  118  A    between atoms: _284  and  _285
REMARK  119  A    between atoms: _284  and  _287
REMARK  120  A    between atoms: _287  and  _288
REMARK  121  A    between atoms: _293  and  _295
REMARK  122  A    between atoms: _295  and  _296
REMARK  123  A    between atoms: _295  and  _298
REMARK  124  A    between atoms: _298  and  _299
REMARK  125  A    between atoms: _299  and  _300
REMARK  126  A    between atoms: _300  and  _301
REMARK  127  A    between atoms: _311  and  _312
REMARK  128  A    between atoms: _317  and  _319
REMARK  129  A    between atoms: _319  and  _320
REMARK  130  A    between atoms: _319  and  _322
REMARK  131  A    between atoms: _322  and  _323
REMARK  132  A    between atoms: _326  and  _328
REMARK  133  A    between atoms: _328  and  _329
REMARK  134  A    between atoms: _328  and  _331
REMARK  135  A    between atoms: _331  and  _332
REMARK  136  A    between atoms: _335  and  _337
REMARK  137  A    between atoms: _337  and  _338
REMARK  138  A    between atoms: _337  and  _340
REMARK  139  A    between atoms: _340  and  _341
REMARK  140  A    between atoms: _344  and  _346
REMARK  141  A    between atoms: _346  and  _347
REMARK  142  A    between atoms: _346  and  _349
REMARK  143  A    between atoms: _349  and  _350
REMARK  144  A    between atoms: _353  and  _355
REMARK  145  A    between atoms: _355  and  _356
REMARK  146  A    between atoms: _355  and  _358
REMARK  147  A    between atoms: _358  and  _359
REMARK  148  A    between atoms: _362  and  _364
REMARK  149  A    between atoms: _364  and  _365
REMARK  150  A    between atoms: _367  and  _369
REMARK  151  A    between atoms: _369  and  _370
REMARK  152  A    between atoms: _373  and  _375
REMARK  153  A    between atoms: _375  and  _376
REMARK  154  A    between atoms: _375  and  _378
REMARK  155  A    between atoms: _378  and  _379
REMARK  156  A    between atoms: _382  and  _384
REMARK  157  A    between atoms: _384  and  _385
REMARK  158  A    between atoms: _384  and  _387
REMARK  159  A    between atoms: _387  and  _388
REMARK  160  A    between atoms: _391  and  _393
REMARK  161  A    between atoms: _393  and  _394
REMARK  162  A    between atoms: _393  and  _396
REMARK  163  A    between atoms: _396  and  _397
REMARK  164  A    between atoms: _400  and  _402
REMARK  165  A    between atoms: _402  and  _403
REMARK  166  A    between atoms: _402  and  _405
REMARK  167  A    between atoms: _408  and  _410
REMARK  168  A    between atoms: _410  and  _411
REMARK  169  A    between atoms: _410  and  _413
REMARK  170  A    between atoms: _413  and  _414
REMARK  171  A    between atoms: _417  and  _419
REMARK  172  A    between atoms: _419  and  _420
REMARK  173  A    between atoms: _422  and  _424
REMARK  174  A    between atoms: _424  and  _425
REMARK  175  A    between atoms: _429  and  _430
REMARK  176  A    between atoms: _429  and  _432
REMARK  177  A    between atoms: _432  and  _433
REMARK  178  A    between atoms: _436  and  _438
REMARK  179  A    between atoms: _438  and  _439
REMARK  180  A    between atoms: _441  and  _443
REMARK  181  A    between atoms: _443  and  _444
REMARK  182  A    between atoms: _446  and  _448
REMARK  183  A    between atoms: _448  and  _449
REMARK  184  A    between atoms: _448  and  _451
REMARK  185  A    between atoms: _451  and  _452
REMARK  186  A    between atoms: _458  and  _460
REMARK  187  A    between atoms: _460  and  _461
REMARK  188  A    between atoms: _460  and  _463
REMARK  189  A    between atoms: _463  and  _464
REMARK  190  A    between atoms: _467  and  _469
REMARK  191  A    between atoms: _469  and  _470
REMARK  192  A    between atoms: _469  and  _472
REMARK  193  A    between atoms: _472  and  _473
REMARK  194  A    between atoms: _476  and  _478
REMARK  195  A    between atoms: _478  and  _479
REMARK  196  A    between atoms: _478  and  _481
REMARK  197  A    between atoms: _481  and  _482
REMARK  198  A    between atoms: _486  and  _487
REMARK  199  A    between atoms: _492  and  _494
REMARK  200  A    between atoms: _494  and  _495
REMARK  201  A    between atoms: _494  and  _497
REMARK  202  A    between atoms: _500  and  _502
REMARK  203  A    between atoms: _502  and  _503
REMARK  204  A    between atoms: _502  and  _505
REMARK  205  A    between atoms: _505  and  _506
REMARK  206  A    between atoms: _511  and  _513
REMARK  207  A    between atoms: _513  and  _514
REMARK  208  A    between atoms: _513  and  _516
REMARK  209  A    between atoms: _516  and  _517
REMARK  210  A    between atoms: _520  and  _522
REMARK  211  A    between atoms: _522  and  _523
REMARK  212  A    between atoms: _525  and  _527
REMARK  213  A    between atoms: _527  and  _528
REMARK  214  A    between atoms: _527  and  _530
REMARK  215  A    between atoms: _530  and  _531
REMARK  216  A    between atoms: _531  and  _532
REMARK  217  A    between atoms: _532  and  _533
REMARK                            x       y       z     vdW  Elec       q    Type
REMARK                         _______ _______ _______ _____ _____    ______ ____
ROOT
ATOM      1  O   HOH     1      21.730  16.462  10.638  0.00  0.00    +0.000 OA
ENDROOT
TORSDOF 0
REMARK  Name = ../refined-set-2016/1d4y/1d4y_pocket.pdb
REMARK  217 active torsions:
REMARK  status: ('A' for Active; 'I' for Inactive)
REMARK    1  A    between atoms: _1  and  _3
REMARK    2  A    between atoms: _3  and  _4
REMARK    3  A    between atoms: _3  and  _6
REMARK    4  A    between atoms: _6  and  _7
REMARK    5  A    between atoms: _7  and  _8
REMARK    6  A    between atoms: _8  and  _9
REMARK    7  A    between atoms: _18  and  _20
REMARK    8  A    between atoms: _20  and  _21
REMARK    9  A    between atoms: _20  and  _23
REMARK   10  A    between atoms: _23  and  _24
REMARK   11  A    between atoms: _27  and  _29
REMARK   12  A    between atoms: _29  and  _30
REMARK   13  A    between atoms: _29  and  _32
REMARK   14  A    between atoms: _32  and  _33
REMARK   15  A    between atoms: _36  and  _38
REMARK   16  A    between atoms: _38  and  _39
REMARK   17  A    between atoms: _38  and  _41
REMARK   18  A    between atoms: _41  and  _42
REMARK   19  A    between atoms: _45  and  _47
REMARK   20  A    between atoms: _47  and  _48
REMARK   21  A    between atoms: _47  and  _50
REMARK   22  A    between atoms: _50  and  _51
REMARK   23  A    between atoms: _54  and  _56
REMARK   24  A    between atoms: _56  and  _57
REMARK   25  A    between atoms: _56  and  _59
REMARK   26  A    between atoms: _59  and  _60
REMARK   27  A    between atoms: _63  and  _65
REMARK   28  A    between atoms: _65  and  _66
REMARK   29  A    between atoms: _68  and  _70
REMARK   30  A    between atoms: _70  and  _71
REMARK   31  A    between atoms: _74  and  _76
REMARK   32  A    between atoms: _76  and  _77
REMARK   33  A    between atoms: _76  and  _79
REMARK   34  A    between atoms: _79  and  _80
REMARK   35  A    between atoms: _83  and  _85
REMARK   36  A    between atoms: _85  and  _86
REMARK   37  A    between atoms: _85  and  _88
REMARK   38  A    between atoms: _88  and  _89
REMARK   39  A    between atoms: _92  and  _94
REMARK   40  A    between atoms: _94  and  _95
REMARK   41  A    between atoms: _94  and  _97
REMARK   42  A    between atoms: _97  and  _98
REMARK   43  A    between atoms: _101  and  _103
REMARK   44  A    between atoms: _103  and  _104
REMARK   45  A    between atoms: _103  and  _106
REMARK   46  A    between atoms: _109  and  _111
REMARK   47  A    between atoms: _111  and  _112
REMARK   48  A    between atoms: _111  and  _114
REMARK   49  A    between atoms: _114  and  _115
REMARK   50  A    between atoms: _115  and  _116
REMARK   51  A    between atoms: _116  and  _117
REMARK   52  A    between atoms: _117  and  _118
REMARK   53  A    between atoms: _122  and  _124
REMARK   54  A    between atoms: _124  and  _125
REMARK   55  A    between atoms: _124  and  _127
REMARK   56  A    between atoms: _127  and  _128
REMARK   57  A    between atoms: _128  and  _129
REMARK   58  A    between atoms: _131  and  _133
REMARK   59  A    between atoms: _133  and  _134
REMARK   60  A    between atoms: _133  and  _136
REMARK   61  A    between atoms: _136  and  _137
REMARK   62  A    between atoms: _140  and  _142
REMARK   63  A    between atoms: _142  and  _143
REMARK   64  A    between atoms: _145  and  _147
REMARK   65  A    between atoms: _147  and  _148
REMARK   66  A    between atoms: _150  and  _152
REMARK   67  A    between atoms: _152  and  _153
REMARK   68  A    between atoms: _152  and  _155
REMARK   69  A    between atoms: _155  and  _156
REMARK   70  A    between atoms: _159  and  _161
REMARK   71  A    between atoms: _161  and  _162
REMARK   72  A    between atoms: _164  and  _166
REMARK   73  A    between atoms: _166  and  _167
REMARK   74  A    between atoms: _169  and  _171
REMARK   75  A    between atoms: _171  and  _172
REMARK   76  A    between atoms: _171  and  _174
REMARK   77  A    between atoms: _174  and  _175
REMARK   78  A    between atoms: _181  and  _183
REMARK   79  A    between atoms: _183  and  _184
REMARK   80  A    between atoms: _183  and  _186
REMARK   81  A    between atoms: _186  and  _187
REMARK   82  A    between atoms: _190  and  _192
REMARK   83  A    between atoms: _192  and  _193
REMARK   84  A    between atoms: _192  and  _195
REMARK   85  A    between atoms: _198  and  _200
REMARK   86  A    between atoms: _200  and  _201
REMARK   87  A    between atoms: _200  and  _203
REMARK   88  A    between atoms: _203  and  _204
REMARK   89  A    between atoms: _207  and  _209
REMARK   90  A    between atoms: _209  and  _210
REMARK   91  A    between atoms: _209  and  _212
REMARK   92  A    between atoms: _212  and  _213
REMARK   93  A    between atoms: _217  and  _218
REMARK   94  A    between atoms: _223  and  _225
REMARK   95  A    between atoms: _225  and  _226
REMARK   96  A    between atoms: _225  and  _228
REMARK   97  A    between atoms: _231  and  _233
REMARK   98  A    between atoms: _233  and  _234
REMARK   99  A    between atoms: _233  and  _236
REMARK  100  A    between atoms: _236  and  _237
REMARK  101  A    between atoms: _242  and  _244
REMARK  102  A    between atoms: _244  and  _245
REMARK  103  A    between atoms: _244  and  _247
REMARK  104  A    between atoms: _247  and  _248
REMARK  105  A    between atoms: _251  and  _253
REMARK  106  A    between atoms: _253  and  _254
REMARK  107  A    between atoms: _253  and  _256
REMARK  108  A    between atoms: _256  and  _257
REMARK  109  A    between atoms: _260  and  _262
REMARK  110  A    between atoms: _262  and  _263
REMARK  111  A    between atoms: _265  and  _267
REMARK  112  A    between atoms: _267  and  _268
REMARK  113  A    between atoms: _267  and  _270
REMARK  114  A    between atoms: _270  and  _271
REMARK  115  A    between atoms: _271  and  _272
REMARK  116  A    between atoms: _272  and  _273
REMARK  117  A    between atoms: _282  and  _284
REMARK  118  A    between atoms: _284  and  _285
REMARK  119  A    between atoms: _284  and  _287
REMARK  120  A    between atoms: _287  and  _288
REMARK  121  A    between atoms: _293  and  _295
REMARK  122  A    between atoms: _295  and  _296
REMARK  123  A    between atoms: _295  and  _298
REMARK  124  A    between atoms: _298  and  _299
REMARK  125  A    between atoms: _299  and  _300
REMARK  126  A    between atoms: _300  and  _301
REMARK  127  A    between atoms: _311  and  _312
REMARK  128  A    between atoms: _317  and  _319
REMARK  129  A    between atoms: _319  and  _320
REMARK  130  A    between atoms: _319  and  _322
REMARK  131  A    between atoms: _322  and  _323
REMARK  132  A    between atoms: _326  and  _328
REMARK  133  A    between atoms: _328  and  _329
REMARK  134  A    between atoms: _328  and  _331
REMARK  135  A    between atoms: _331  and  _332
REMARK  136  A    between atoms: _335  and  _337
REMARK  137  A    between atoms: _337  and  _338
REMARK  138  A    between atoms: _337  and  _340
REMARK  139  A    between atoms: _340  and  _341
REMARK  140  A    between atoms: _344  and  _346
REMARK  141  A    between atoms: _346  and  _347
REMARK  142  A    between atoms: _346  and  _349
REMARK  143  A    between atoms: _349  and  _350
REMARK  144  A    between atoms: _353  and  _355
REMARK  145  A    between atoms: _355  and  _356
REMARK  146  A    between atoms: _355  and  _358
REMARK  147  A    between atoms: _358  and  _359
REMARK  148  A    between atoms: _362  and  _364
REMARK  149  A    between atoms: _364  and  _365
REMARK  150  A    between atoms: _367  and  _369
REMARK  151  A    between atoms: _369  and  _370
REMARK  152  A    between atoms: _373  and  _375
REMARK  153  A    between atoms: _375  and  _376
REMARK  154  A    between atoms: _375  and  _378
REMARK  155  A    between atoms: _378  and  _379
REMARK  156  A    between atoms: _382  and  _384
REMARK  157  A    between atoms: _384  and  _385
REMARK  158  A    between atoms: _384  and  _387
REMARK  159  A    between atoms: _387  and  _388
REMARK  160  A    between atoms: _391  and  _393
REMARK  161  A    between atoms: _393  and  _394
REMARK  162  A    between atoms: _393  and  _396
REMARK  163  A    between atoms: _396  and  _397
REMARK  164  A    between atoms: _400  and  _402
REMARK  165  A    between atoms: _402  and  _403
REMARK  166  A    between atoms: _402  and  _405
REMARK  167  A    between atoms: _408  and  _410
REMARK  168  A    between atoms: _410  and  _411
REMARK  169  A    between atoms: _410  and  _413
REMARK  170  A    between atoms: _413  and  _414
REMARK  171  A    between atoms: _417  and  _419
REMARK  172  A    between atoms: _419  and  _420
REMARK  173  A    between atoms: _422  and  _424
REMARK  174  A    between atoms: _424  and  _425
REMARK  175  A    between atoms: _429  and  _430
REMARK  176  A    between atoms: _429  and  _432
REMARK  177  A    between atoms: _432  and  _433
REMARK  178  A    between atoms: _436  and  _438
REMARK  179  A    between atoms: _438  and  _439
REMARK  180  A    between atoms: _441  and  _443
REMARK  181  A    between atoms: _443  and  _444
REMARK  182  A    between atoms: _446  and  _448
REMARK  183  A    between atoms: _448  and  _449
REMARK  184  A    between atoms: _448  and  _451
REMARK  185  A    between atoms: _451  and  _452
REMARK  186  A    between atoms: _458  and  _460
REMARK  187  A    between atoms: _460  and  _461
REMARK  188  A    between atoms: _460  and  _463
REMARK  189  A    between atoms: _463  and  _464
REMARK  190  A    between atoms: _467  and  _469
REMARK  191  A    between atoms: _469  and  _470
REMARK  192  A    between atoms: _469  and  _472
REMARK  193  A    between atoms: _472  and  _473
REMARK  194  A    between atoms: _476  and  _478
REMARK  195  A    between atoms: _478  and  _479
REMARK  196  A    between atoms: _478  and  _481
REMARK  197  A    between atoms: _481  and  _482
REMARK  198  A    between atoms: _486  and  _487
REMARK  199  A    between atoms: _492  and  _494
REMARK  200  A    between atoms: _494  and  _495
REMARK  201  A    between atoms: _494  and  _497
REMARK  202  A    between atoms: _500  and  _502
REMARK  203  A    between atoms: _502  and  _503
REMARK  204  A    between atoms: _502  and  _505
REMARK  205  A    between atoms: _505  and  _506
REMARK  206  A    between atoms: _511  and  _513
REMARK  207  A    between atoms: _513  and  _514
REMARK  208  A    between atoms: _513  and  _516
REMARK  209  A    between atoms: _516  and  _517
REMARK  210  A    between atoms: _520  and  _522
REMARK  211  A    between atoms: _522  and  _523
REMARK  212  A    between atoms: _525  and  _527
REMARK  213  A    between atoms: _527  and  _528
REMARK  214  A    between atoms: _527  and  _530
REMARK  215  A    between atoms: _530  and  _531
REMARK  216  A    between atoms: _531  and  _532
REMARK  217  A    between atoms: _532  and  _533
REMARK                            x       y       z     vdW  Elec       q    Type
REMARK                         _______ _______ _______ _____ _____    ______ ____
ROOT
ATOM      1  O   HOH     1       5.318  34.676   6.996  0.00  0.00    +0.000 OA
ENDROOT
TORSDOF 0
REMARK  Name = ../refined-set-2016/1d4y/1d4y_pocket.pdb
REMARK  217 active torsions:
REMARK  status: ('A' for Active; 'I' for Inactive)
REMARK    1  A    between atoms: _1  and  _3
REMARK    2  A    between atoms: _3  and  _4
REMARK    3  A    between atoms: _3  and  _6
REMARK    4  A    between atoms: _6  and  _7
REMARK    5  A    between atoms: _7  and  _8
REMARK    6  A    between atoms: _8  and  _9
REMARK    7  A    between atoms: _18  and  _20
REMARK    8  A    between atoms: _20  and  _21
REMARK    9  A    between atoms: _20  and  _23
REMARK   10  A    between atoms: _23  and  _24
REMARK   11  A    between atoms: _27  and  _29
REMARK   12  A    between atoms: _29  and  _30
REMARK   13  A    between atoms: _29  and  _32
REMARK   14  A    between atoms: _32  and  _33
REMARK   15  A    between atoms: _36  and  _38
REMARK   16  A    between atoms: _38  and  _39
REMARK   17  A    between atoms: _38  and  _41
REMARK   18  A    between atoms: _41  and  _42
REMARK   19  A    between atoms: _45  and  _47
REMARK   20  A    between atoms: _47  and  _48
REMARK   21  A    between atoms: _47  and  _50
REMARK   22  A    between atoms: _50  and  _51
REMARK   23  A    between atoms: _54  and  _56
REMARK   24  A    between atoms: _56  and  _57
REMARK   25  A    between atoms: _56  and  _59
REMARK   26  A    between atoms: _59  and  _60
REMARK   27  A    between atoms: _63  and  _65
REMARK   28  A    between atoms: _65  and  _66
REMARK   29  A    between atoms: _68  and  _70
REMARK   30  A    between atoms: _70  and  _71
REMARK   31  A    between atoms: _74  and  _76
REMARK   32  A    between atoms: _76  and  _77
REMARK   33  A    between atoms: _76  and  _79
REMARK   34  A    between atoms: _79  and  _80
REMARK   35  A    between atoms: _83  and  _85
REMARK   36  A    between atoms: _85  and  _86
REMARK   37  A    between atoms: _85  and  _88
REMARK   38  A    between atoms: _88  and  _89
REMARK   39  A    between atoms: _92  and  _94
REMARK   40  A    between atoms: _94  and  _95
REMARK   41  A    between atoms: _94  and  _97
REMARK   42  A    between atoms: _97  and  _98
REMARK   43  A    between atoms: _101  and  _103
REMARK   44  A    between atoms: _103  and  _104
REMARK   45  A    between atoms: _103  and  _106
REMARK   46  A    between atoms: _109  and  _111
REMARK   47  A    between atoms: _111  and  _112
REMARK   48  A    between atoms: _111  and  _114
REMARK   49  A    between atoms: _114  and  _115
REMARK   50  A    between atoms: _115  and  _116
REMARK   51  A    between atoms: _116  and  _117
REMARK   52  A    between atoms: _117  and  _118
REMARK   53  A    between atoms: _122  and  _124
REMARK   54  A    between atoms: _124  and  _125
REMARK   55  A    between atoms: _124  and  _127
REMARK   56  A    between atoms: _127  and  _128
REMARK   57  A    between atoms: _128  and  _129
REMARK   58  A    between atoms: _131  and  _133
REMARK   59  A    between atoms: _133  and  _134
REMARK   60  A    between atoms: _133  and  _136
REMARK   61  A    between atoms: _136  and  _137
REMARK   62  A    between atoms: _140  and  _142
REMARK   63  A    between atoms: _142  and  _143
REMARK   64  A    between atoms: _145  and  _147
REMARK   65  A    between atoms: _147  and  _148
REMARK   66  A    between atoms: _150  and  _152
REMARK   67  A    between atoms: _152  and  _153
REMARK   68  A    between atoms: _152  and  _155
REMARK   69  A    between atoms: _155  and  _156
REMARK   70  A    between atoms: _159  and  _161
REMARK   71  A    between atoms: _161  and  _162
REMARK   72  A    between atoms: _164  and  _166
REMARK   73  A    between atoms: _166  and  _167
REMARK   74  A    between atoms: _169  and  _171
REMARK   75  A    between atoms: _171  and  _172
REMARK   76  A    between atoms: _171  and  _174
REMARK   77  A    between atoms: _174  and  _175
REMARK   78  A    between atoms: _181  and  _183
REMARK   79  A    between atoms: _183  and  _184
REMARK   80  A    between atoms: _183  and  _186
REMARK   81  A    between atoms: _186  and  _187
REMARK   82  A    between atoms: _190  and  _192
REMARK   83  A    between atoms: _192  and  _193
REMARK   84  A    between atoms: _192  and  _195
REMARK   85  A    between atoms: _198  and  _200
REMARK   86  A    between atoms: _200  and  _201
REMARK   87  A    between atoms: _200  and  _203
REMARK   88  A    between atoms: _203  and  _204
REMARK   89  A    between atoms: _207  and  _209
REMARK   90  A    between atoms: _209  and  _210
REMARK   91  A    between atoms: _209  and  _212
REMARK   92  A    between atoms: _212  and  _213
REMARK   93  A    between atoms: _217  and  _218
REMARK   94  A    between atoms: _223  and  _225
REMARK   95  A    between atoms: _225  and  _226
REMARK   96  A    between atoms: _225  and  _228
REMARK   97  A    between atoms: _231  and  _233
REMARK   98  A    between atoms: _233  and  _234
REMARK   99  A    between atoms: _233  and  _236
REMARK  100  A    between atoms: _236  and  _237
REMARK  101  A    between atoms: _242  and  _244
REMARK  102  A    between atoms: _244  and  _245
REMARK  103  A    between atoms: _244  and  _247
REMARK  104  A    between atoms: _247  and  _248
REMARK  105  A    between atoms: _251  and  _253
REMARK  106  A    between atoms: _253  and  _254
REMARK  107  A    between atoms: _253  and  _256
REMARK  108  A    between atoms: _256  and  _257
REMARK  109  A    between atoms: _260  and  _262
REMARK  110  A    between atoms: _262  and  _263
REMARK  111  A    between atoms: _265  and  _267
REMARK  112  A    between atoms: _267  and  _268
REMARK  113  A    between atoms: _267  and  _270
REMARK  114  A    between atoms: _270  and  _271
REMARK  115  A    between atoms: _271  and  _272
REMARK  116  A    between atoms: _272  and  _273
REMARK  117  A    between atoms: _282  and  _284
REMARK  118  A    between atoms: _284  and  _285
REMARK  119  A    between atoms: _284  and  _287
REMARK  120  A    between atoms: _287  and  _288
REMARK  121  A    between atoms: _293  and  _295
REMARK  122  A    between atoms: _295  and  _296
REMARK  123  A    between atoms: _295  and  _298
REMARK  124  A    between atoms: _298  and  _299
REMARK  125  A    between atoms: _299  and  _300
REMARK  126  A    between atoms: _300  and  _301
REMARK  127  A    between atoms: _311  and  _312
REMARK  128  A    between atoms: _317  and  _319
REMARK  129  A    between atoms: _319  and  _320
REMARK  130  A    between atoms: _319  and  _322
REMARK  131  A    between atoms: _322  and  _323
REMARK  132  A    between atoms: _326  and  _328
REMARK  133  A    between atoms: _328  and  _329
REMARK  134  A    between atoms: _328  and  _331
REMARK  135  A    between atoms: _331  and  _332
REMARK  136  A    between atoms: _335  and  _337
REMARK  137  A    between atoms: _337  and  _338
REMARK  138  A    between atoms: _337  and  _340
REMARK  139  A    between atoms: _340  and  _341
REMARK  140  A    between atoms: _344  and  _346
REMARK  141  A    between atoms: _346  and  _347
REMARK  142  A    between atoms: _346  and  _349
REMARK  143  A    between atoms: _349  and  _350
REMARK  144  A    between atoms: _353  and  _355
REMARK  145  A    between atoms: _355  and  _356
REMARK  146  A    between atoms: _355  and  _358
REMARK  147  A    between atoms: _358  and  _359
REMARK  148  A    between atoms: _362  and  _364
REMARK  149  A    between atoms: _364  and  _365
REMARK  150  A    between atoms: _367  and  _369
REMARK  151  A    between atoms: _369  and  _370
REMARK  152  A    between atoms: _373  and  _375
REMARK  153  A    between atoms: _375  and  _376
REMARK  154  A    between atoms: _375  and  _378
REMARK  155  A    between atoms: _378  and  _379
REMARK  156  A    between atoms: _382  and  _384
REMARK  157  A    between atoms: _384  and  _385
REMARK  158  A    between atoms: _384  and  _387
REMARK  159  A    between atoms: _387  and  _388
REMARK  160  A    between atoms: _391  and  _393
REMARK  161  A    between atoms: _393  and  _394
REMARK  162  A    between atoms: _393  and  _396
REMARK  163  A    between atoms: _396  and  _397
REMARK  164  A    between atoms: _400  and  _402
REMARK  165  A    between atoms: _402  and  _403
REMARK  166  A    between atoms: _402  and  _405
REMARK  167  A    between atoms: _408  and  _410
REMARK  168  A    between atoms: _410  and  _411
REMARK  169  A    between atoms: _410  and  _413
REMARK  170  A    between atoms: _413  and  _414
REMARK  171  A    between atoms: _417  and  _419
REMARK  172  A    between atoms: _419  and  _420
REMARK  173  A    between atoms: _422  and  _424
REMARK  174  A    between atoms: _424  and  _425
REMARK  175  A    between atoms: _429  and  _430
REMARK  176  A    between atoms: _429  and  _432
REMARK  177  A    between atoms: _432  and  _433
REMARK  178  A    between atoms: _436  and  _438
REMARK  179  A    between atoms: _438  and  _439
REMARK  180  A    between atoms: _441  and  _443
REMARK  181  A    between atoms: _443  and  _444
REMARK  182  A    between atoms: _446  and  _448
REMARK  183  A    between atoms: _448  and  _449
REMARK  184  A    between atoms: _448  and  _451
REMARK  185  A    between atoms: _451  and  _452
REMARK  186  A    between atoms: _458  and  _460
REMARK  187  A    between atoms: _460  and  _461
REMARK  188  A    between atoms: _460  and  _463
REMARK  189  A    between atoms: _463  and  _464
REMARK  190  A    between atoms: _467  and  _469
REMARK  191  A    between atoms: _469  and  _470
REMARK  192  A    between atoms: _469  and  _472
REMARK  193  A    between atoms: _472  and  _473
REMARK  194  A    between atoms: _476  and  _478
REMARK  195  A    between atoms: _478  and  _479
REMARK  196  A    between atoms: _478  and  _481
REMARK  197  A    between atoms: _481  and  _482
REMARK  198  A    between atoms: _486  and  _487
REMARK  199  A    between atoms: _492  and  _494
REMARK  200  A    between atoms: _494  and  _495
REMARK  201  A    between atoms: _494  and  _497
REMARK  202  A    between atoms: _500  and  _502
REMARK  203  A    between atoms: _502  and  _503
REMARK  204  A    between atoms: _502  and  _505
REMARK  205  A    between atoms: _505  and  _506
REMARK  206  A    between atoms: _511  and  _513
REMARK  207  A    between atoms: _513  and  _514
REMARK  208  A    between atoms: _513  and  _516
REMARK  209  A    between atoms: _516  and  _517
REMARK  210  A    between atoms: _520  and  _522
REMARK  211  A    between atoms: _522  and  _523
REMARK  212  A    between atoms: _525  and  _527
REMARK  213  A    between atoms: _527  and  _528
REMARK  214  A    between atoms: _527  and  _530
REMARK  215  A    between atoms: _530  and  _531
REMARK  216  A    between atoms: _531  and  _532
REMARK  217  A    between atoms: _532  and  _533
REMARK                            x       y       z     vdW  Elec       q    Type
REMARK                         _______ _______ _______ _____ _____    ______ ____
ROOT
ATOM      1  O   HOH     1      25.549  20.878  11.887  0.00  0.00    +0.000 OA
ENDROOT
TORSDOF 0
REMARK  Name = ../refined-set-2016/1d4y/1d4y_pocket.pdb
REMARK  217 active torsions:
REMARK  status: ('A' for Active; 'I' for Inactive)
REMARK    1  A    between atoms: _1  and  _3
REMARK    2  A    between atoms: _3  and  _4
REMARK    3  A    between atoms: _3  and  _6
REMARK    4  A    between atoms: _6  and  _7
REMARK    5  A    between atoms: _7  and  _8
REMARK    6  A    between atoms: _8  and  _9
REMARK    7  A    between atoms: _18  and  _20
REMARK    8  A    between atoms: _20  and  _21
REMARK    9  A    between atoms: _20  and  _23
REMARK   10  A    between atoms: _23  and  _24
REMARK   11  A    between atoms: _27  and  _29
REMARK   12  A    between atoms: _29  and  _30
REMARK   13  A    between atoms: _29  and  _32
REMARK   14  A    between atoms: _32  and  _33
REMARK   15  A    between atoms: _36  and  _38
REMARK   16  A    between atoms: _38  and  _39
REMARK   17  A    between atoms: _38  and  _41
REMARK   18  A    between atoms: _41  and  _42
REMARK   19  A    between atoms: _45  and  _47
REMARK   20  A    between atoms: _47  and  _48
REMARK   21  A    between atoms: _47  and  _50
REMARK   22  A    between atoms: _50  and  _51
REMARK   23  A    between atoms: _54  and  _56
REMARK   24  A    between atoms: _56  and  _57
REMARK   25  A    between atoms: _56  and  _59
REMARK   26  A    between atoms: _59  and  _60
REMARK   27  A    between atoms: _63  and  _65
REMARK   28  A    between atoms: _65  and  _66
REMARK   29  A    between atoms: _68  and  _70
REMARK   30  A    between atoms: _70  and  _71
REMARK   31  A    between atoms: _74  and  _76
REMARK   32  A    between atoms: _76  and  _77
REMARK   33  A    between atoms: _76  and  _79
REMARK   34  A    between atoms: _79  and  _80
REMARK   35  A    between atoms: _83  and  _85
REMARK   36  A    between atoms: _85  and  _86
REMARK   37  A    between atoms: _85  and  _88
REMARK   38  A    between atoms: _88  and  _89
REMARK   39  A    between atoms: _92  and  _94
REMARK   40  A    between atoms: _94  and  _95
REMARK   41  A    between atoms: _94  and  _97
REMARK   42  A    between atoms: _97  and  _98
REMARK   43  A    between atoms: _101  and  _103
REMARK   44  A    between atoms: _103  and  _104
REMARK   45  A    between atoms: _103  and  _106
REMARK   46  A    between atoms: _109  and  _111
REMARK   47  A    between atoms: _111  and  _112
REMARK   48  A    between atoms: _111  and  _114
REMARK   49  A    between atoms: _114  and  _115
REMARK   50  A    between atoms: _115  and  _116
REMARK   51  A    between atoms: _116  and  _117
REMARK   52  A    between atoms: _117  and  _118
REMARK   53  A    between atoms: _122  and  _124
REMARK   54  A    between atoms: _124  and  _125
REMARK   55  A    between atoms: _124  and  _127
REMARK   56  A    between atoms: _127  and  _128
REMARK   57  A    between atoms: _128  and  _129
REMARK   58  A    between atoms: _131  and  _133
REMARK   59  A    between atoms: _133  and  _134
REMARK   60  A    between atoms: _133  and  _136
REMARK   61  A    between atoms: _136  and  _137
REMARK   62  A    between atoms: _140  and  _142
REMARK   63  A    between atoms: _142  and  _143
REMARK   64  A    between atoms: _145  and  _147
REMARK   65  A    between atoms: _147  and  _148
REMARK   66  A    between atoms: _150  and  _152
REMARK   67  A    between atoms: _152  and  _153
REMARK   68  A    between atoms: _152  and  _155
REMARK   69  A    between atoms: _155  and  _156
REMARK   70  A    between atoms: _159  and  _161
REMARK   71  A    between atoms: _161  and  _162
REMARK   72  A    between atoms: _164  and  _166
REMARK   73  A    between atoms: _166  and  _167
REMARK   74  A    between atoms: _169  and  _171
REMARK   75  A    between atoms: _171  and  _172
REMARK   76  A    between atoms: _171  and  _174
REMARK   77  A    between atoms: _174  and  _175
REMARK   78  A    between atoms: _181  and  _183
REMARK   79  A    between atoms: _183  and  _184
REMARK   80  A    between atoms: _183  and  _186
REMARK   81  A    between atoms: _186  and  _187
REMARK   82  A    between atoms: _190  and  _192
REMARK   83  A    between atoms: _192  and  _193
REMARK   84  A    between atoms: _192  and  _195
REMARK   85  A    between atoms: _198  and  _200
REMARK   86  A    between atoms: _200  and  _201
REMARK   87  A    between atoms: _200  and  _203
REMARK   88  A    between atoms: _203  and  _204
REMARK   89  A    between atoms: _207  and  _209
REMARK   90  A    between atoms: _209  and  _210
REMARK   91  A    between atoms: _209  and  _212
REMARK   92  A    between atoms: _212  and  _213
REMARK   93  A    between atoms: _217  and  _218
REMARK   94  A    between atoms: _223  and  _225
REMARK   95  A    between atoms: _225  and  _226
REMARK   96  A    between atoms: _225  and  _228
REMARK   97  A    between atoms: _231  and  _233
REMARK   98  A    between atoms: _233  and  _234
REMARK   99  A    between atoms: _233  and  _236
REMARK  100  A    between atoms: _236  and  _237
REMARK  101  A    between atoms: _242  and  _244
REMARK  102  A    between atoms: _244  and  _245
REMARK  103  A    between atoms: _244  and  _247
REMARK  104  A    between atoms: _247  and  _248
REMARK  105  A    between atoms: _251  and  _253
REMARK  106  A    between atoms: _253  and  _254
REMARK  107  A    between atoms: _253  and  _256
REMARK  108  A    between atoms: _256  and  _257
REMARK  109  A    between atoms: _260  and  _262
REMARK  110  A    between atoms: _262  and  _263
REMARK  111  A    between atoms: _265  and  _267
REMARK  112  A    between atoms: _267  and  _268
REMARK  113  A    between atoms: _267  and  _270
REMARK  114  A    between atoms: _270  and  _271
REMARK  115  A    between atoms: _271  and  _272
REMARK  116  A    between atoms: _272  and  _273
REMARK  117  A    between atoms: _282  and  _284
REMARK  118  A    between atoms: _284  and  _285
REMARK  119  A    between atoms: _284  and  _287
REMARK  120  A    between atoms: _287  and  _288
REMARK  121  A    between atoms: _293  and  _295
REMARK  122  A    between atoms: _295  and  _296
REMARK  123  A    between atoms: _295  and  _298
REMARK  124  A    between atoms: _298  and  _299
REMARK  125  A    between atoms: _299  and  _300
REMARK  126  A    between atoms: _300  and  _301
REMARK  127  A    between atoms: _311  and  _312
REMARK  128  A    between atoms: _317  and  _319
REMARK  129  A    between atoms: _319  and  _320
REMARK  130  A    between atoms: _319  and  _322
REMARK  131  A    between atoms: _322  and  _323
REMARK  132  A    between atoms: _326  and  _328
REMARK  133  A    between atoms: _328  and  _329
REMARK  134  A    between atoms: _328  and  _331
REMARK  135  A    between atoms: _331  and  _332
REMARK  136  A    between atoms: _335  and  _337
REMARK  137  A    between atoms: _337  and  _338
REMARK  138  A    between atoms: _337  and  _340
REMARK  139  A    between atoms: _340  and  _341
REMARK  140  A    between atoms: _344  and  _346
REMARK  141  A    between atoms: _346  and  _347
REMARK  142  A    between atoms: _346  and  _349
REMARK  143  A    between atoms: _349  and  _350
REMARK  144  A    between atoms: _353  and  _355
REMARK  145  A    between atoms: _355  and  _356
REMARK  146  A    between atoms: _355  and  _358
REMARK  147  A    between atoms: _358  and  _359
REMARK  148  A    between atoms: _362  and  _364
REMARK  149  A    between atoms: _364  and  _365
REMARK  150  A    between atoms: _367  and  _369
REMARK  151  A    between atoms: _369  and  _370
REMARK  152  A    between atoms: _373  and  _375
REMARK  153  A    between atoms: _375  and  _376
REMARK  154  A    between atoms: _375  and  _378
REMARK  155  A    between atoms: _378  and  _379
REMARK  156  A    between atoms: _382  and  _384
REMARK  157  A    between atoms: _384  and  _385
REMARK  158  A    between atoms: _384  and  _387
REMARK  159  A    between atoms: _387  and  _388
REMARK  160  A    between atoms: _391  and  _393
REMARK  161  A    between atoms: _393  and  _394
REMARK  162  A    between atoms: _393  and  _396
REMARK  163  A    between atoms: _396  and  _397
REMARK  164  A    between atoms: _400  and  _402
REMARK  165  A    between atoms: _402  and  _403
REMARK  166  A    between atoms: _402  and  _405
REMARK  167  A    between atoms: _408  and  _410
REMARK  168  A    between atoms: _410  and  _411
REMARK  169  A    between atoms: _410  and  _413
REMARK  170  A    between atoms: _413  and  _414
REMARK  171  A    between atoms: _417  and  _419
REMARK  172  A    between atoms: _419  and  _420
REMARK  173  A    between atoms: _422  and  _424
REMARK  174  A    between atoms: _424  and  _425
REMARK  175  A    between atoms: _429  and  _430
REMARK  176  A    between atoms: _429  and  _432
REMARK  177  A    between atoms: _432  and  _433
REMARK  178  A    between atoms: _436  and  _438
REMARK  179  A    between atoms: _438  and  _439
REMARK  180  A    between atoms: _441  and  _443
REMARK  181  A    between atoms: _443  and  _444
REMARK  182  A    between atoms: _446  and  _448
REMARK  183  A    between atoms: _448  and  _449
REMARK  184  A    between atoms: _448  and  _451
REMARK  185  A    between atoms: _451  and  _452
REMARK  186  A    between atoms: _458  and  _460
REMARK  187  A    between atoms: _460  and  _461
REMARK  188  A    between atoms: _460  and  _463
REMARK  189  A    between atoms: _463  and  _464
REMARK  190  A    between atoms: _467  and  _469
REMARK  191  A    between atoms: _469  and  _470
REMARK  192  A    between atoms: _469  and  _472
REMARK  193  A    between atoms: _472  and  _473
REMARK  194  A    between atoms: _476  and  _478
REMARK  195  A    between atoms: _478  and  _479
REMARK  196  A    between atoms: _478  and  _481
REMARK  197  A    between atoms: _481  and  _482
REMARK  198  A    between atoms: _486  and  _487
REMARK  199  A    between atoms: _492  and  _494
REMARK  200  A    between atoms: _494  and  _495
REMARK  201  A    between atoms: _494  and  _497
REMARK  202  A    between atoms: _500  and  _502
REMARK  203  A    between atoms: _502  and  _503
REMARK  204  A    between atoms: _502  and  _505
REMARK  205  A    between atoms: _505  and  _506
REMARK  206  A    between atoms: _511  and  _513
REMARK  207  A    between atoms: _513  and  _514
REMARK  208  A    between atoms: _513  and  _516
REMARK  209  A    between atoms: _516  and  _517
REMARK  210  A    between atoms: _520  and  _522
REMARK  211  A    between atoms: _522  and  _523
REMARK  212  A    between atoms: _525  and  _527
REMARK  213  A    between atoms: _527  and  _528
REMARK  214  A    between atoms: _527  and  _530
REMARK  215  A    between atoms: _530  and  _531
REMARK  216  A    between atoms: _531  and  _532
REMARK  217  A    between atoms: _532  and  _533
REMARK                            x       y       z     vdW  Elec       q    Type
REMARK                         _______ _______ _______ _____ _____    ______ ____
ROOT
ATOM      1  O   HOH     1      17.588  16.179  10.968  0.00  0.00    +0.000 OA
ENDROOT
TORSDOF 0
REMARK  Name = ../refined-set-2016/1d4y/1d4y_pocket.pdb
REMARK  217 active torsions:
REMARK  status: ('A' for Active; 'I' for Inactive)
REMARK    1  A    between atoms: _1  and  _3
REMARK    2  A    between atoms: _3  and  _4
REMARK    3  A    between atoms: _3  and  _6
REMARK    4  A    between atoms: _6  and  _7
REMARK    5  A    between atoms: _7  and  _8
REMARK    6  A    between atoms: _8  and  _9
REMARK    7  A    between atoms: _18  and  _20
REMARK    8  A    between atoms: _20  and  _21
REMARK    9  A    between atoms: _20  and  _23
REMARK   10  A    between atoms: _23  and  _24
REMARK   11  A    between atoms: _27  and  _29
REMARK   12  A    between atoms: _29  and  _30
REMARK   13  A    between atoms: _29  and  _32
REMARK   14  A    between atoms: _32  and  _33
REMARK   15  A    between atoms: _36  and  _38
REMARK   16  A    between atoms: _38  and  _39
REMARK   17  A    between atoms: _38  and  _41
REMARK   18  A    between atoms: _41  and  _42
REMARK   19  A    between atoms: _45  and  _47
REMARK   20  A    between atoms: _47  and  _48
REMARK   21  A    between atoms: _47  and  _50
REMARK   22  A    between atoms: _50  and  _51
REMARK   23  A    between atoms: _54  and  _56
REMARK   24  A    between atoms: _56  and  _57
REMARK   25  A    between atoms: _56  and  _59
REMARK   26  A    between atoms: _59  and  _60
REMARK   27  A    between atoms: _63  and  _65
REMARK   28  A    between atoms: _65  and  _66
REMARK   29  A    between atoms: _68  and  _70
REMARK   30  A    between atoms: _70  and  _71
REMARK   31  A    between atoms: _74  and  _76
REMARK   32  A    between atoms: _76  and  _77
REMARK   33  A    between atoms: _76  and  _79
REMARK   34  A    between atoms: _79  and  _80
REMARK   35  A    between atoms: _83  and  _85
REMARK   36  A    between atoms: _85  and  _86
REMARK   37  A    between atoms: _85  and  _88
REMARK   38  A    between atoms: _88  and  _89
REMARK   39  A    between atoms: _92  and  _94
REMARK   40  A    between atoms: _94  and  _95
REMARK   41  A    between atoms: _94  and  _97
REMARK   42  A    between atoms: _97  and  _98
REMARK   43  A    between atoms: _101  and  _103
REMARK   44  A    between atoms: _103  and  _104
REMARK   45  A    between atoms: _103  and  _106
REMARK   46  A    between atoms: _109  and  _111
REMARK   47  A    between atoms: _111  and  _112
REMARK   48  A    between atoms: _111  and  _114
REMARK   49  A    between atoms: _114  and  _115
REMARK   50  A    between atoms: _115  and  _116
REMARK   51  A    between atoms: _116  and  _117
REMARK   52  A    between atoms: _117  and  _118
REMARK   53  A    between atoms: _122  and  _124
REMARK   54  A    between atoms: _124  and  _125
REMARK   55  A    between atoms: _124  and  _127
REMARK   56  A    between atoms: _127  and  _128
REMARK   57  A    between atoms: _128  and  _129
REMARK   58  A    between atoms: _131  and  _133
REMARK   59  A    between atoms: _133  and  _134
REMARK   60  A    between atoms: _133  and  _136
REMARK   61  A    between atoms: _136  and  _137
REMARK   62  A    between atoms: _140  and  _142
REMARK   63  A    between atoms: _142  and  _143
REMARK   64  A    between atoms: _145  and  _147
REMARK   65  A    between atoms: _147  and  _148
REMARK   66  A    between atoms: _150  and  _152
REMARK   67  A    between atoms: _152  and  _153
REMARK   68  A    between atoms: _152  and  _155
REMARK   69  A    between atoms: _155  and  _156
REMARK   70  A    between atoms: _159  and  _161
REMARK   71  A    between atoms: _161  and  _162
REMARK   72  A    between atoms: _164  and  _166
REMARK   73  A    between atoms: _166  and  _167
REMARK   74  A    between atoms: _169  and  _171
REMARK   75  A    between atoms: _171  and  _172
REMARK   76  A    between atoms: _171  and  _174
REMARK   77  A    between atoms: _174  and  _175
REMARK   78  A    between atoms: _181  and  _183
REMARK   79  A    between atoms: _183  and  _184
REMARK   80  A    between atoms: _183  and  _186
REMARK   81  A    between atoms: _186  and  _187
REMARK   82  A    between atoms: _190  and  _192
REMARK   83  A    between atoms: _192  and  _193
REMARK   84  A    between atoms: _192  and  _195
REMARK   85  A    between atoms: _198  and  _200
REMARK   86  A    between atoms: _200  and  _201
REMARK   87  A    between atoms: _200  and  _203
REMARK   88  A    between atoms: _203  and  _204
REMARK   89  A    between atoms: _207  and  _209
REMARK   90  A    between atoms: _209  and  _210
REMARK   91  A    between atoms: _209  and  _212
REMARK   92  A    between atoms: _212  and  _213
REMARK   93  A    between atoms: _217  and  _218
REMARK   94  A    between atoms: _223  and  _225
REMARK   95  A    between atoms: _225  and  _226
REMARK   96  A    between atoms: _225  and  _228
REMARK   97  A    between atoms: _231  and  _233
REMARK   98  A    between atoms: _233  and  _234
REMARK   99  A    between atoms: _233  and  _236
REMARK  100  A    between atoms: _236  and  _237
REMARK  101  A    between atoms: _242  and  _244
REMARK  102  A    between atoms: _244  and  _245
REMARK  103  A    between atoms: _244  and  _247
REMARK  104  A    between atoms: _247  and  _248
REMARK  105  A    between atoms: _251  and  _253
REMARK  106  A    between atoms: _253  and  _254
REMARK  107  A    between atoms: _253  and  _256
REMARK  108  A    between atoms: _256  and  _257
REMARK  109  A    between atoms: _260  and  _262
REMARK  110  A    between atoms: _262  and  _263
REMARK  111  A    between atoms: _265  and  _267
REMARK  112  A    between atoms: _267  and  _268
REMARK  113  A    between atoms: _267  and  _270
REMARK  114  A    between atoms: _270  and  _271
REMARK  115  A    between atoms: _271  and  _272
REMARK  116  A    between atoms: _272  and  _273
REMARK  117  A    between atoms: _282  and  _284
REMARK  118  A    between atoms: _284  and  _285
REMARK  119  A    between atoms: _284  and  _287
REMARK  120  A    between atoms: _287  and  _288
REMARK  121  A    between atoms: _293  and  _295
REMARK  122  A    between atoms: _295  and  _296
REMARK  123  A    between atoms: _295  and  _298
REMARK  124  A    between atoms: _298  and  _299
REMARK  125  A    between atoms: _299  and  _300
REMARK  126  A    between atoms: _300  and  _301
REMARK  127  A    between atoms: _311  and  _312
REMARK  128  A    between atoms: _317  and  _319
REMARK  129  A    between atoms: _319  and  _320
REMARK  130  A    between atoms: _319  and  _322
REMARK  131  A    between atoms: _322  and  _323
REMARK  132  A    between atoms: _326  and  _328
REMARK  133  A    between atoms: _328  and  _329
REMARK  134  A    between atoms: _328  and  _331
REMARK  135  A    between atoms: _331  and  _332
REMARK  136  A    between atoms: _335  and  _337
REMARK  137  A    between atoms: _337  and  _338
REMARK  138  A    between atoms: _337  and  _340
REMARK  139  A    between atoms: _340  and  _341
REMARK  140  A    between atoms: _344  and  _346
REMARK  141  A    between atoms: _346  and  _347
REMARK  142  A    between atoms: _346  and  _349
REMARK  143  A    between atoms: _349  and  _350
REMARK  144  A    between atoms: _353  and  _355
REMARK  145  A    between atoms: _355  and  _356
REMARK  146  A    between atoms: _355  and  _358
REMARK  147  A    between atoms: _358  and  _359
REMARK  148  A    between atoms: _362  and  _364
REMARK  149  A    between atoms: _364  and  _365
REMARK  150  A    between atoms: _367  and  _369
REMARK  151  A    between atoms: _369  and  _370
REMARK  152  A    between atoms: _373  and  _375
REMARK  153  A    between atoms: _375  and  _376
REMARK  154  A    between atoms: _375  and  _378
REMARK  155  A    between atoms: _378  and  _379
REMARK  156  A    between atoms: _382  and  _384
REMARK  157  A    between atoms: _384  and  _385
REMARK  158  A    between atoms: _384  and  _387
REMARK  159  A    between atoms: _387  and  _388
REMARK  160  A    between atoms: _391  and  _393
REMARK  161  A    between atoms: _393  and  _394
REMARK  162  A    between atoms: _393  and  _396
REMARK  163  A    between atoms: _396  and  _397
REMARK  164  A    between atoms: _400  and  _402
REMARK  165  A    between atoms: _402  and  _403
REMARK  166  A    between atoms: _402  and  _405
REMARK  167  A    between atoms: _408  and  _410
REMARK  168  A    between atoms: _410  and  _411
REMARK  169  A    between atoms: _410  and  _413
REMARK  170  A    between atoms: _413  and  _414
REMARK  171  A    between atoms: _417  and  _419
REMARK  172  A    between atoms: _419  and  _420
REMARK  173  A    between atoms: _422  and  _424
REMARK  174  A    between atoms: _424  and  _425
REMARK  175  A    between atoms: _429  and  _430
REMARK  176  A    between atoms: _429  and  _432
REMARK  177  A    between atoms: _432  and  _433
REMARK  178  A    between atoms: _436  and  _438
REMARK  179  A    between atoms: _438  and  _439
REMARK  180  A    between atoms: _441  and  _443
REMARK  181  A    between atoms: _443  and  _444
REMARK  182  A    between atoms: _446  and  _448
REMARK  183  A    between atoms: _448  and  _449
REMARK  184  A    between atoms: _448  and  _451
REMARK  185  A    between atoms: _451  and  _452
REMARK  186  A    between atoms: _458  and  _460
REMARK  187  A    between atoms: _460  and  _461
REMARK  188  A    between atoms: _460  and  _463
REMARK  189  A    between atoms: _463  and  _464
REMARK  190  A    between atoms: _467  and  _469
REMARK  191  A    between atoms: _469  and  _470
REMARK  192  A    between atoms: _469  and  _472
REMARK  193  A    between atoms: _472  and  _473
REMARK  194  A    between atoms: _476  and  _478
REMARK  195  A    between atoms: _478  and  _479
REMARK  196  A    between atoms: _478  and  _481
REMARK  197  A    between atoms: _481  and  _482
REMARK  198  A    between atoms: _486  and  _487
REMARK  199  A    between atoms: _492  and  _494
REMARK  200  A    between atoms: _494  and  _495
REMARK  201  A    between atoms: _494  and  _497
REMARK  202  A    between atoms: _500  and  _502
REMARK  203  A    between atoms: _502  and  _503
REMARK  204  A    between atoms: _502  and  _505
REMARK  205  A    between atoms: _505  and  _506
REMARK  206  A    between atoms: _511  and  _513
REMARK  207  A    between atoms: _513  and  _514
REMARK  208  A    between atoms: _513  and  _516
REMARK  209  A    between atoms: _516  and  _517
REMARK  210  A    between atoms: _520  and  _522
REMARK  211  A    between atoms: _522  and  _523
REMARK  212  A    between atoms: _525  and  _527
REMARK  213  A    between atoms: _527  and  _528
REMARK  214  A    between atoms: _527  and  _530
REMARK  215  A    between atoms: _530  and  _531
REMARK  216  A    between atoms: _531  and  _532
REMARK  217  A    between atoms: _532  and  _533
REMARK                            x       y       z     vdW  Elec       q    Type
REMARK                         _______ _______ _______ _____ _____    ______ ____
ROOT
ATOM      1  O   HOH     1       4.088  30.771   7.656  0.00  0.00    +0.000 OA
ENDROOT
TORSDOF 0
REMARK  Name = ../refined-set-2016/1d4y/1d4y_pocket.pdb
REMARK  217 active torsions:
REMARK  status: ('A' for Active; 'I' for Inactive)
REMARK    1  A    between atoms: _1  and  _3
REMARK    2  A    between atoms: _3  and  _4
REMARK    3  A    between atoms: _3  and  _6
REMARK    4  A    between atoms: _6  and  _7
REMARK    5  A    between atoms: _7  and  _8
REMARK    6  A    between atoms: _8  and  _9
REMARK    7  A    between atoms: _18  and  _20
REMARK    8  A    between atoms: _20  and  _21
REMARK    9  A    between atoms: _20  and  _23
REMARK   10  A    between atoms: _23  and  _24
REMARK   11  A    between atoms: _27  and  _29
REMARK   12  A    between atoms: _29  and  _30
REMARK   13  A    between atoms: _29  and  _32
REMARK   14  A    between atoms: _32  and  _33
REMARK   15  A    between atoms: _36  and  _38
REMARK   16  A    between atoms: _38  and  _39
REMARK   17  A    between atoms: _38  and  _41
REMARK   18  A    between atoms: _41  and  _42
REMARK   19  A    between atoms: _45  and  _47
REMARK   20  A    between atoms: _47  and  _48
REMARK   21  A    between atoms: _47  and  _50
REMARK   22  A    between atoms: _50  and  _51
REMARK   23  A    between atoms: _54  and  _56
REMARK   24  A    between atoms: _56  and  _57
REMARK   25  A    between atoms: _56  and  _59
REMARK   26  A    between atoms: _59  and  _60
REMARK   27  A    between atoms: _63  and  _65
REMARK   28  A    between atoms: _65  and  _66
REMARK   29  A    between atoms: _68  and  _70
REMARK   30  A    between atoms: _70  and  _71
REMARK   31  A    between atoms: _74  and  _76
REMARK   32  A    between atoms: _76  and  _77
REMARK   33  A    between atoms: _76  and  _79
REMARK   34  A    between atoms: _79  and  _80
REMARK   35  A    between atoms: _83  and  _85
REMARK   36  A    between atoms: _85  and  _86
REMARK   37  A    between atoms: _85  and  _88
REMARK   38  A    between atoms: _88  and  _89
REMARK   39  A    between atoms: _92  and  _94
REMARK   40  A    between atoms: _94  and  _95
REMARK   41  A    between atoms: _94  and  _97
REMARK   42  A    between atoms: _97  and  _98
REMARK   43  A    between atoms: _101  and  _103
REMARK   44  A    between atoms: _103  and  _104
REMARK   45  A    between atoms: _103  and  _106
REMARK   46  A    between atoms: _109  and  _111
REMARK   47  A    between atoms: _111  and  _112
REMARK   48  A    between atoms: _111  and  _114
REMARK   49  A    between atoms: _114  and  _115
REMARK   50  A    between atoms: _115  and  _116
REMARK   51  A    between atoms: _116  and  _117
REMARK   52  A    between atoms: _117  and  _118
REMARK   53  A    between atoms: _122  and  _124
REMARK   54  A    between atoms: _124  and  _125
REMARK   55  A    between atoms: _124  and  _127
REMARK   56  A    between atoms: _127  and  _128
REMARK   57  A    between atoms: _128  and  _129
REMARK   58  A    between atoms: _131  and  _133
REMARK   59  A    between atoms: _133  and  _134
REMARK   60  A    between atoms: _133  and  _136
REMARK   61  A    between atoms: _136  and  _137
REMARK   62  A    between atoms: _140  and  _142
REMARK   63  A    between atoms: _142  and  _143
REMARK   64  A    between atoms: _145  and  _147
REMARK   65  A    between atoms: _147  and  _148
REMARK   66  A    between atoms: _150  and  _152
REMARK   67  A    between atoms: _152  and  _153
REMARK   68  A    between atoms: _152  and  _155
REMARK   69  A    between atoms: _155  and  _156
REMARK   70  A    between atoms: _159  and  _161
REMARK   71  A    between atoms: _161  and  _162
REMARK   72  A    between atoms: _164  and  _166
REMARK   73  A    between atoms: _166  and  _167
REMARK   74  A    between atoms: _169  and  _171
REMARK   75  A    between atoms: _171  and  _172
REMARK   76  A    between atoms: _171  and  _174
REMARK   77  A    between atoms: _174  and  _175
REMARK   78  A    between atoms: _181  and  _183
REMARK   79  A    between atoms: _183  and  _184
REMARK   80  A    between atoms: _183  and  _186
REMARK   81  A    between atoms: _186  and  _187
REMARK   82  A    between atoms: _190  and  _192
REMARK   83  A    between atoms: _192  and  _193
REMARK   84  A    between atoms: _192  and  _195
REMARK   85  A    between atoms: _198  and  _200
REMARK   86  A    between atoms: _200  and  _201
REMARK   87  A    between atoms: _200  and  _203
REMARK   88  A    between atoms: _203  and  _204
REMARK   89  A    between atoms: _207  and  _209
REMARK   90  A    between atoms: _209  and  _210
REMARK   91  A    between atoms: _209  and  _212
REMARK   92  A    between atoms: _212  and  _213
REMARK   93  A    between atoms: _217  and  _218
REMARK   94  A    between atoms: _223  and  _225
REMARK   95  A    between atoms: _225  and  _226
REMARK   96  A    between atoms: _225  and  _228
REMARK   97  A    between atoms: _231  and  _233
REMARK   98  A    between atoms: _233  and  _234
REMARK   99  A    between atoms: _233  and  _236
REMARK  100  A    between atoms: _236  and  _237
REMARK  101  A    between atoms: _242  and  _244
REMARK  102  A    between atoms: _244  and  _245
REMARK  103  A    between atoms: _244  and  _247
REMARK  104  A    between atoms: _247  and  _248
REMARK  105  A    between atoms: _251  and  _253
REMARK  106  A    between atoms: _253  and  _254
REMARK  107  A    between atoms: _253  and  _256
REMARK  108  A    between atoms: _256  and  _257
REMARK  109  A    between atoms: _260  and  _262
REMARK  110  A    between atoms: _262  and  _263
REMARK  111  A    between atoms: _265  and  _267
REMARK  112  A    between atoms: _267  and  _268
REMARK  113  A    between atoms: _267  and  _270
REMARK  114  A    between atoms: _270  and  _271
REMARK  115  A    between atoms: _271  and  _272
REMARK  116  A    between atoms: _272  and  _273
REMARK  117  A    between atoms: _282  and  _284
REMARK  118  A    between atoms: _284  and  _285
REMARK  119  A    between atoms: _284  and  _287
REMARK  120  A    between atoms: _287  and  _288
REMARK  121  A    between atoms: _293  and  _295
REMARK  122  A    between atoms: _295  and  _296
REMARK  123  A    between atoms: _295  and  _298
REMARK  124  A    between atoms: _298  and  _299
REMARK  125  A    between atoms: _299  and  _300
REMARK  126  A    between atoms: _300  and  _301
REMARK  127  A    between atoms: _311  and  _312
REMARK  128  A    between atoms: _317  and  _319
REMARK  129  A    between atoms: _319  and  _320
REMARK  130  A    between atoms: _319  and  _322
REMARK  131  A    between atoms: _322  and  _323
REMARK  132  A    between atoms: _326  and  _328
REMARK  133  A    between atoms: _328  and  _329
REMARK  134  A    between atoms: _328  and  _331
REMARK  135  A    between atoms: _331  and  _332
REMARK  136  A    between atoms: _335  and  _337
REMARK  137  A    between atoms: _337  and  _338
REMARK  138  A    between atoms: _337  and  _340
REMARK  139  A    between atoms: _340  and  _341
REMARK  140  A    between atoms: _344  and  _346
REMARK  141  A    between atoms: _346  and  _347
REMARK  142  A    between atoms: _346  and  _349
REMARK  143  A    between atoms: _349  and  _350
REMARK  144  A    between atoms: _353  and  _355
REMARK  145  A    between atoms: _355  and  _356
REMARK  146  A    between atoms: _355  and  _358
REMARK  147  A    between atoms: _358  and  _359
REMARK  148  A    between atoms: _362  and  _364
REMARK  149  A    between atoms: _364  and  _365
REMARK  150  A    between atoms: _367  and  _369
REMARK  151  A    between atoms: _369  and  _370
REMARK  152  A    between atoms: _373  and  _375
REMARK  153  A    between atoms: _375  and  _376
REMARK  154  A    between atoms: _375  and  _378
REMARK  155  A    between atoms: _378  and  _379
REMARK  156  A    between atoms: _382  and  _384
REMARK  157  A    between atoms: _384  and  _385
REMARK  158  A    between atoms: _384  and  _387
REMARK  159  A    between atoms: _387  and  _388
REMARK  160  A    between atoms: _391  and  _393
REMARK  161  A    between atoms: _393  and  _394
REMARK  162  A    between atoms: _393  and  _396
REMARK  163  A    between atoms: _396  and  _397
REMARK  164  A    between atoms: _400  and  _402
REMARK  165  A    between atoms: _402  and  _403
REMARK  166  A    between atoms: _402  and  _405
REMARK  167  A    between atoms: _408  and  _410
REMARK  168  A    between atoms: _410  and  _411
REMARK  169  A    between atoms: _410  and  _413
REMARK  170  A    between atoms: _413  and  _414
REMARK  171  A    between atoms: _417  and  _419
REMARK  172  A    between atoms: _419  and  _420
REMARK  173  A    between atoms: _422  and  _424
REMARK  174  A    between atoms: _424  and  _425
REMARK  175  A    between atoms: _429  and  _430
REMARK  176  A    between atoms: _429  and  _432
REMARK  177  A    between atoms: _432  and  _433
REMARK  178  A    between atoms: _436  and  _438
REMARK  179  A    between atoms: _438  and  _439
REMARK  180  A    between atoms: _441  and  _443
REMARK  181  A    between atoms: _443  and  _444
REMARK  182  A    between atoms: _446  and  _448
REMARK  183  A    between atoms: _448  and  _449
REMARK  184  A    between atoms: _448  and  _451
REMARK  185  A    between atoms: _451  and  _452
REMARK  186  A    between atoms: _458  and  _460
REMARK  187  A    between atoms: _460  and  _461
REMARK  188  A    between atoms: _460  and  _463
REMARK  189  A    between atoms: _463  and  _464
REMARK  190  A    between atoms: _467  and  _469
REMARK  191  A    between atoms: _469  and  _470
REMARK  192  A    between atoms: _469  and  _472
REMARK  193  A    between atoms: _472  and  _473
REMARK  194  A    between atoms: _476  and  _478
REMARK  195  A    between atoms: _478  and  _479
REMARK  196  A    between atoms: _478  and  _481
REMARK  197  A    between atoms: _481  and  _482
REMARK  198  A    between atoms: _486  and  _487
REMARK  199  A    between atoms: _492  and  _494
REMARK  200  A    between atoms: _494  and  _495
REMARK  201  A    between atoms: _494  and  _497
REMARK  202  A    between atoms: _500  and  _502
REMARK  203  A    between atoms: _502  and  _503
REMARK  204  A    between atoms: _502  and  _505
REMARK  205  A    between atoms: _505  and  _506
REMARK  206  A    between atoms: _511  and  _513
REMARK  207  A    between atoms: _513  and  _514
REMARK  208  A    between atoms: _513  and  _516
REMARK  209  A    between atoms: _516  and  _517
REMARK  210  A    between atoms: _520  and  _522
REMARK  211  A    between atoms: _522  and  _523
REMARK  212  A    between atoms: _525  and  _527
REMARK  213  A    between atoms: _527  and  _528
REMARK  214  A    between atoms: _527  and  _530
REMARK  215  A    between atoms: _530  and  _531
REMARK  216  A    between atoms: _531  and  _532
REMARK  217  A    between atoms: _532  and  _533
REMARK                            x       y       z     vdW  Elec       q    Type
REMARK                         _______ _______ _______ _____ _____    ______ ____
ROOT
ATOM      1  O   HOH     1      26.821  18.953   9.466  0.00  0.00    +0.000 OA
ENDROOT
TORSDOF 0
REMARK  Name = ../refined-set-2016/1d4y/1d4y_pocket.pdb
REMARK  217 active torsions:
REMARK  status: ('A' for Active; 'I' for Inactive)
REMARK    1  A    between atoms: _1  and  _3
REMARK    2  A    between atoms: _3  and  _4
REMARK    3  A    between atoms: _3  and  _6
REMARK    4  A    between atoms: _6  and  _7
REMARK    5  A    between atoms: _7  and  _8
REMARK    6  A    between atoms: _8  and  _9
REMARK    7  A    between atoms: _18  and  _20
REMARK    8  A    between atoms: _20  and  _21
REMARK    9  A    between atoms: _20  and  _23
REMARK   10  A    between atoms: _23  and  _24
REMARK   11  A    between atoms: _27  and  _29
REMARK   12  A    between atoms: _29  and  _30
REMARK   13  A    between atoms: _29  and  _32
REMARK   14  A    between atoms: _32  and  _33
REMARK   15  A    between atoms: _36  and  _38
REMARK   16  A    between atoms: _38  and  _39
REMARK   17  A    between atoms: _38  and  _41
REMARK   18  A    between atoms: _41  and  _42
REMARK   19  A    between atoms: _45  and  _47
REMARK   20  A    between atoms: _47  and  _48
REMARK   21  A    between atoms: _47  and  _50
REMARK   22  A    between atoms: _50  and  _51
REMARK   23  A    between atoms: _54  and  _56
REMARK   24  A    between atoms: _56  and  _57
REMARK   25  A    between atoms: _56  and  _59
REMARK   26  A    between atoms: _59  and  _60
REMARK   27  A    between atoms: _63  and  _65
REMARK   28  A    between atoms: _65  and  _66
REMARK   29  A    between atoms: _68  and  _70
REMARK   30  A    between atoms: _70  and  _71
REMARK   31  A    between atoms: _74  and  _76
REMARK   32  A    between atoms: _76  and  _77
REMARK   33  A    between atoms: _76  and  _79
REMARK   34  A    between atoms: _79  and  _80
REMARK   35  A    between atoms: _83  and  _85
REMARK   36  A    between atoms: _85  and  _86
REMARK   37  A    between atoms: _85  and  _88
REMARK   38  A    between atoms: _88  and  _89
REMARK   39  A    between atoms: _92  and  _94
REMARK   40  A    between atoms: _94  and  _95
REMARK   41  A    between atoms: _94  and  _97
REMARK   42  A    between atoms: _97  and  _98
REMARK   43  A    between atoms: _101  and  _103
REMARK   44  A    between atoms: _103  and  _104
REMARK   45  A    between atoms: _103  and  _106
REMARK   46  A    between atoms: _109  and  _111
REMARK   47  A    between atoms: _111  and  _112
REMARK   48  A    between atoms: _111  and  _114
REMARK   49  A    between atoms: _114  and  _115
REMARK   50  A    between atoms: _115  and  _116
REMARK   51  A    between atoms: _116  and  _117
REMARK   52  A    between atoms: _117  and  _118
REMARK   53  A    between atoms: _122  and  _124
REMARK   54  A    between atoms: _124  and  _125
REMARK   55  A    between atoms: _124  and  _127
REMARK   56  A    between atoms: _127  and  _128
REMARK   57  A    between atoms: _128  and  _129
REMARK   58  A    between atoms: _131  and  _133
REMARK   59  A    between atoms: _133  and  _134
REMARK   60  A    between atoms: _133  and  _136
REMARK   61  A    between atoms: _136  and  _137
REMARK   62  A    between atoms: _140  and  _142
REMARK   63  A    between atoms: _142  and  _143
REMARK   64  A    between atoms: _145  and  _147
REMARK   65  A    between atoms: _147  and  _148
REMARK   66  A    between atoms: _150  and  _152
REMARK   67  A    between atoms: _152  and  _153
REMARK   68  A    between atoms: _152  and  _155
REMARK   69  A    between atoms: _155  and  _156
REMARK   70  A    between atoms: _159  and  _161
REMARK   71  A    between atoms: _161  and  _162
REMARK   72  A    between atoms: _164  and  _166
REMARK   73  A    between atoms: _166  and  _167
REMARK   74  A    between atoms: _169  and  _171
REMARK   75  A    between atoms: _171  and  _172
REMARK   76  A    between atoms: _171  and  _174
REMARK   77  A    between atoms: _174  and  _175
REMARK   78  A    between atoms: _181  and  _183
REMARK   79  A    between atoms: _183  and  _184
REMARK   80  A    between atoms: _183  and  _186
REMARK   81  A    between atoms: _186  and  _187
REMARK   82  A    between atoms: _190  and  _192
REMARK   83  A    between atoms: _192  and  _193
REMARK   84  A    between atoms: _192  and  _195
REMARK   85  A    between atoms: _198  and  _200
REMARK   86  A    between atoms: _200  and  _201
REMARK   87  A    between atoms: _200  and  _203
REMARK   88  A    between atoms: _203  and  _204
REMARK   89  A    between atoms: _207  and  _209
REMARK   90  A    between atoms: _209  and  _210
REMARK   91  A    between atoms: _209  and  _212
REMARK   92  A    between atoms: _212  and  _213
REMARK   93  A    between atoms: _217  and  _218
REMARK   94  A    between atoms: _223  and  _225
REMARK   95  A    between atoms: _225  and  _226
REMARK   96  A    between atoms: _225  and  _228
REMARK   97  A    between atoms: _231  and  _233
REMARK   98  A    between atoms: _233  and  _234
REMARK   99  A    between atoms: _233  and  _236
REMARK  100  A    between atoms: _236  and  _237
REMARK  101  A    between atoms: _242  and  _244
REMARK  102  A    between atoms: _244  and  _245
REMARK  103  A    between atoms: _244  and  _247
REMARK  104  A    between atoms: _247  and  _248
REMARK  105  A    between atoms: _251  and  _253
REMARK  106  A    between atoms: _253  and  _254
REMARK  107  A    between atoms: _253  and  _256
REMARK  108  A    between atoms: _256  and  _257
REMARK  109  A    between atoms: _260  and  _262
REMARK  110  A    between atoms: _262  and  _263
REMARK  111  A    between atoms: _265  and  _267
REMARK  112  A    between atoms: _267  and  _268
REMARK  113  A    between atoms: _267  and  _270
REMARK  114  A    between atoms: _270  and  _271
REMARK  115  A    between atoms: _271  and  _272
REMARK  116  A    between atoms: _272  and  _273
REMARK  117  A    between atoms: _282  and  _284
REMARK  118  A    between atoms: _284  and  _285
REMARK  119  A    between atoms: _284  and  _287
REMARK  120  A    between atoms: _287  and  _288
REMARK  121  A    between atoms: _293  and  _295
REMARK  122  A    between atoms: _295  and  _296
REMARK  123  A    between atoms: _295  and  _298
REMARK  124  A    between atoms: _298  and  _299
REMARK  125  A    between atoms: _299  and  _300
REMARK  126  A    between atoms: _300  and  _301
REMARK  127  A    between atoms: _311  and  _312
REMARK  128  A    between atoms: _317  and  _319
REMARK  129  A    between atoms: _319  and  _320
REMARK  130  A    between atoms: _319  and  _322
REMARK  131  A    between atoms: _322  and  _323
REMARK  132  A    between atoms: _326  and  _328
REMARK  133  A    between atoms: _328  and  _329
REMARK  134  A    between atoms: _328  and  _331
REMARK  135  A    between atoms: _331  and  _332
REMARK  136  A    between atoms: _335  and  _337
REMARK  137  A    between atoms: _337  and  _338
REMARK  138  A    between atoms: _337  and  _340
REMARK  139  A    between atoms: _340  and  _341
REMARK  140  A    between atoms: _344  and  _346
REMARK  141  A    between atoms: _346  and  _347
REMARK  142  A    between atoms: _346  and  _349
REMARK  143  A    between atoms: _349  and  _350
REMARK  144  A    between atoms: _353  and  _355
REMARK  145  A    between atoms: _355  and  _356
REMARK  146  A    between atoms: _355  and  _358
REMARK  147  A    between atoms: _358  and  _359
REMARK  148  A    between atoms: _362  and  _364
REMARK  149  A    between atoms: _364  and  _365
REMARK  150  A    between atoms: _367  and  _369
REMARK  151  A    between atoms: _369  and  _370
REMARK  152  A    between atoms: _373  and  _375
REMARK  153  A    between atoms: _375  and  _376
REMARK  154  A    between atoms: _375  and  _378
REMARK  155  A    between atoms: _378  and  _379
REMARK  156  A    between atoms: _382  and  _384
REMARK  157  A    between atoms: _384  and  _385
REMARK  158  A    between atoms: _384  and  _387
REMARK  159  A    between atoms: _387  and  _388
REMARK  160  A    between atoms: _391  and  _393
REMARK  161  A    between atoms: _393  and  _394
REMARK  162  A    between atoms: _393  and  _396
REMARK  163  A    between atoms: _396  and  _397
REMARK  164  A    between atoms: _400  and  _402
REMARK  165  A    between atoms: _402  and  _403
REMARK  166  A    between atoms: _402  and  _405
REMARK  167  A    between atoms: _408  and  _410
REMARK  168  A    between atoms: _410  and  _411
REMARK  169  A    between atoms: _410  and  _413
REMARK  170  A    between atoms: _413  and  _414
REMARK  171  A    between atoms: _417  and  _419
REMARK  172  A    between atoms: _419  and  _420
REMARK  173  A    between atoms: _422  and  _424
REMARK  174  A    between atoms: _424  and  _425
REMARK  175  A    between atoms: _429  and  _430
REMARK  176  A    between atoms: _429  and  _432
REMARK  177  A    between atoms: _432  and  _433
REMARK  178  A    between atoms: _436  and  _438
REMARK  179  A    between atoms: _438  and  _439
REMARK  180  A    between atoms: _441  and  _443
REMARK  181  A    between atoms: _443  and  _444
REMARK  182  A    between atoms: _446  and  _448
REMARK  183  A    between atoms: _448  and  _449
REMARK  184  A    between atoms: _448  and  _451
REMARK  185  A    between atoms: _451  and  _452
REMARK  186  A    between atoms: _458  and  _460
REMARK  187  A    between atoms: _460  and  _461
REMARK  188  A    between atoms: _460  and  _463
REMARK  189  A    between atoms: _463  and  _464
REMARK  190  A    between atoms: _467  and  _469
REMARK  191  A    between atoms: _469  and  _470
REMARK  192  A    between atoms: _469  and  _472
REMARK  193  A    between atoms: _472  and  _473
REMARK  194  A    between atoms: _476  and  _478
REMARK  195  A    between atoms: _478  and  _479
REMARK  196  A    between atoms: _478  and  _481
REMARK  197  A    between atoms: _481  and  _482
REMARK  198  A    between atoms: _486  and  _487
REMARK  199  A    between atoms: _492  and  _494
REMARK  200  A    between atoms: _494  and  _495
REMARK  201  A    between atoms: _494  and  _497
REMARK  202  A    between atoms: _500  and  _502
REMARK  203  A    between atoms: _502  and  _503
REMARK  204  A    between atoms: _502  and  _505
REMARK  205  A    between atoms: _505  and  _506
REMARK  206  A    between atoms: _511  and  _513
REMARK  207  A    between atoms: _513  and  _514
REMARK  208  A    between atoms: _513  and  _516
REMARK  209  A    between atoms: _516  and  _517
REMARK  210  A    between atoms: _520  and  _522
REMARK  211  A    between atoms: _522  and  _523
REMARK  212  A    between atoms: _525  and  _527
REMARK  213  A    between atoms: _527  and  _528
REMARK  214  A    between atoms: _527  and  _530
REMARK  215  A    between atoms: _530  and  _531
REMARK  216  A    between atoms: _531  and  _532
REMARK  217  A    between atoms: _532  and  _533
REMARK                            x       y       z     vdW  Elec       q    Type
REMARK                         _______ _______ _______ _____ _____    ______ ____
ROOT
ATOM      1  O   HOH     1      23.680  23.832  14.697  0.00  0.00    +0.000 OA
ENDROOT
TORSDOF 0
REMARK  Name = ../refined-set-2016/1d4y/1d4y_pocket.pdb
REMARK  217 active torsions:
REMARK  status: ('A' for Active; 'I' for Inactive)
REMARK    1  A    between atoms: _1  and  _3
REMARK    2  A    between atoms: _3  and  _4
REMARK    3  A    between atoms: _3  and  _6
REMARK    4  A    between atoms: _6  and  _7
REMARK    5  A    between atoms: _7  and  _8
REMARK    6  A    between atoms: _8  and  _9
REMARK    7  A    between atoms: _18  and  _20
REMARK    8  A    between atoms: _20  and  _21
REMARK    9  A    between atoms: _20  and  _23
REMARK   10  A    between atoms: _23  and  _24
REMARK   11  A    between atoms: _27  and  _29
REMARK   12  A    between atoms: _29  and  _30
REMARK   13  A    between atoms: _29  and  _32
REMARK   14  A    between atoms: _32  and  _33
REMARK   15  A    between atoms: _36  and  _38
REMARK   16  A    between atoms: _38  and  _39
REMARK   17  A    between atoms: _38  and  _41
REMARK   18  A    between atoms: _41  and  _42
REMARK   19  A    between atoms: _45  and  _47
REMARK   20  A    between atoms: _47  and  _48
REMARK   21  A    between atoms: _47  and  _50
REMARK   22  A    between atoms: _50  and  _51
REMARK   23  A    between atoms: _54  and  _56
REMARK   24  A    between atoms: _56  and  _57
REMARK   25  A    between atoms: _56  and  _59
REMARK   26  A    between atoms: _59  and  _60
REMARK   27  A    between atoms: _63  and  _65
REMARK   28  A    between atoms: _65  and  _66
REMARK   29  A    between atoms: _68  and  _70
REMARK   30  A    between atoms: _70  and  _71
REMARK   31  A    between atoms: _74  and  _76
REMARK   32  A    between atoms: _76  and  _77
REMARK   33  A    between atoms: _76  and  _79
REMARK   34  A    between atoms: _79  and  _80
REMARK   35  A    between atoms: _83  and  _85
REMARK   36  A    between atoms: _85  and  _86
REMARK   37  A    between atoms: _85  and  _88
REMARK   38  A    between atoms: _88  and  _89
REMARK   39  A    between atoms: _92  and  _94
REMARK   40  A    between atoms: _94  and  _95
REMARK   41  A    between atoms: _94  and  _97
REMARK   42  A    between atoms: _97  and  _98
REMARK   43  A    between atoms: _101  and  _103
REMARK   44  A    between atoms: _103  and  _104
REMARK   45  A    between atoms: _103  and  _106
REMARK   46  A    between atoms: _109  and  _111
REMARK   47  A    between atoms: _111  and  _112
REMARK   48  A    between atoms: _111  and  _114
REMARK   49  A    between atoms: _114  and  _115
REMARK   50  A    between atoms: _115  and  _116
REMARK   51  A    between atoms: _116  and  _117
REMARK   52  A    between atoms: _117  and  _118
REMARK   53  A    between atoms: _122  and  _124
REMARK   54  A    between atoms: _124  and  _125
REMARK   55  A    between atoms: _124  and  _127
REMARK   56  A    between atoms: _127  and  _128
REMARK   57  A    between atoms: _128  and  _129
REMARK   58  A    between atoms: _131  and  _133
REMARK   59  A    between atoms: _133  and  _134
REMARK   60  A    between atoms: _133  and  _136
REMARK   61  A    between atoms: _136  and  _137
REMARK   62  A    between atoms: _140  and  _142
REMARK   63  A    between atoms: _142  and  _143
REMARK   64  A    between atoms: _145  and  _147
REMARK   65  A    between atoms: _147  and  _148
REMARK   66  A    between atoms: _150  and  _152
REMARK   67  A    between atoms: _152  and  _153
REMARK   68  A    between atoms: _152  and  _155
REMARK   69  A    between atoms: _155  and  _156
REMARK   70  A    between atoms: _159  and  _161
REMARK   71  A    between atoms: _161  and  _162
REMARK   72  A    between atoms: _164  and  _166
REMARK   73  A    between atoms: _166  and  _167
REMARK   74  A    between atoms: _169  and  _171
REMARK   75  A    between atoms: _171  and  _172
REMARK   76  A    between atoms: _171  and  _174
REMARK   77  A    between atoms: _174  and  _175
REMARK   78  A    between atoms: _181  and  _183
REMARK   79  A    between atoms: _183  and  _184
REMARK   80  A    between atoms: _183  and  _186
REMARK   81  A    between atoms: _186  and  _187
REMARK   82  A    between atoms: _190  and  _192
REMARK   83  A    between atoms: _192  and  _193
REMARK   84  A    between atoms: _192  and  _195
REMARK   85  A    between atoms: _198  and  _200
REMARK   86  A    between atoms: _200  and  _201
REMARK   87  A    between atoms: _200  and  _203
REMARK   88  A    between atoms: _203  and  _204
REMARK   89  A    between atoms: _207  and  _209
REMARK   90  A    between atoms: _209  and  _210
REMARK   91  A    between atoms: _209  and  _212
REMARK   92  A    between atoms: _212  and  _213
REMARK   93  A    between atoms: _217  and  _218
REMARK   94  A    between atoms: _223  and  _225
REMARK   95  A    between atoms: _225  and  _226
REMARK   96  A    between atoms: _225  and  _228
REMARK   97  A    between atoms: _231  and  _233
REMARK   98  A    between atoms: _233  and  _234
REMARK   99  A    between atoms: _233  and  _236
REMARK  100  A    between atoms: _236  and  _237
REMARK  101  A    between atoms: _242  and  _244
REMARK  102  A    between atoms: _244  and  _245
REMARK  103  A    between atoms: _244  and  _247
REMARK  104  A    between atoms: _247  and  _248
REMARK  105  A    between atoms: _251  and  _253
REMARK  106  A    between atoms: _253  and  _254
REMARK  107  A    between atoms: _253  and  _256
REMARK  108  A    between atoms: _256  and  _257
REMARK  109  A    between atoms: _260  and  _262
REMARK  110  A    between atoms: _262  and  _263
REMARK  111  A    between atoms: _265  and  _267
REMARK  112  A    between atoms: _267  and  _268
REMARK  113  A    between atoms: _267  and  _270
REMARK  114  A    between atoms: _270  and  _271
REMARK  115  A    between atoms: _271  and  _272
REMARK  116  A    between atoms: _272  and  _273
REMARK  117  A    between atoms: _282  and  _284
REMARK  118  A    between atoms: _284  and  _285
REMARK  119  A    between atoms: _284  and  _287
REMARK  120  A    between atoms: _287  and  _288
REMARK  121  A    between atoms: _293  and  _295
REMARK  122  A    between atoms: _295  and  _296
REMARK  123  A    between atoms: _295  and  _298
REMARK  124  A    between atoms: _298  and  _299
REMARK  125  A    between atoms: _299  and  _300
REMARK  126  A    between atoms: _300  and  _301
REMARK  127  A    between atoms: _311  and  _312
REMARK  128  A    between atoms: _317  and  _319
REMARK  129  A    between atoms: _319  and  _320
REMARK  130  A    between atoms: _319  and  _322
REMARK  131  A    between atoms: _322  and  _323
REMARK  132  A    between atoms: _326  and  _328
REMARK  133  A    between atoms: _328  and  _329
REMARK  134  A    between atoms: _328  and  _331
REMARK  135  A    between atoms: _331  and  _332
REMARK  136  A    between atoms: _335  and  _337
REMARK  137  A    between atoms: _337  and  _338
REMARK  138  A    between atoms: _337  and  _340
REMARK  139  A    between atoms: _340  and  _341
REMARK  140  A    between atoms: _344  and  _346
REMARK  141  A    between atoms: _346  and  _347
REMARK  142  A    between atoms: _346  and  _349
REMARK  143  A    between atoms: _349  and  _350
REMARK  144  A    between atoms: _353  and  _355
REMARK  145  A    between atoms: _355  and  _356
REMARK  146  A    between atoms: _355  and  _358
REMARK  147  A    between atoms: _358  and  _359
REMARK  148  A    between atoms: _362  and  _364
REMARK  149  A    between atoms: _364  and  _365
REMARK  150  A    between atoms: _367  and  _369
REMARK  151  A    between atoms: _369  and  _370
REMARK  152  A    between atoms: _373  and  _375
REMARK  153  A    between atoms: _375  and  _376
REMARK  154  A    between atoms: _375  and  _378
REMARK  155  A    between atoms: _378  and  _379
REMARK  156  A    between atoms: _382  and  _384
REMARK  157  A    between atoms: _384  and  _385
REMARK  158  A    between atoms: _384  and  _387
REMARK  159  A    between atoms: _387  and  _388
REMARK  160  A    between atoms: _391  and  _393
REMARK  161  A    between atoms: _393  and  _394
REMARK  162  A    between atoms: _393  and  _396
REMARK  163  A    between atoms: _396  and  _397
REMARK  164  A    between atoms: _400  and  _402
REMARK  165  A    between atoms: _402  and  _403
REMARK  166  A    between atoms: _402  and  _405
REMARK  167  A    between atoms: _408  and  _410
REMARK  168  A    between atoms: _410  and  _411
REMARK  169  A    between atoms: _410  and  _413
REMARK  170  A    between atoms: _413  and  _414
REMARK  171  A    between atoms: _417  and  _419
REMARK  172  A    between atoms: _419  and  _420
REMARK  173  A    between atoms: _422  and  _424
REMARK  174  A    between atoms: _424  and  _425
REMARK  175  A    between atoms: _429  and  _430
REMARK  176  A    between atoms: _429  and  _432
REMARK  177  A    between atoms: _432  and  _433
REMARK  178  A    between atoms: _436  and  _438
REMARK  179  A    between atoms: _438  and  _439
REMARK  180  A    between atoms: _441  and  _443
REMARK  181  A    between atoms: _443  and  _444
REMARK  182  A    between atoms: _446  and  _448
REMARK  183  A    between atoms: _448  and  _449
REMARK  184  A    between atoms: _448  and  _451
REMARK  185  A    between atoms: _451  and  _452
REMARK  186  A    between atoms: _458  and  _460
REMARK  187  A    between atoms: _460  and  _461
REMARK  188  A    between atoms: _460  and  _463
REMARK  189  A    between atoms: _463  and  _464
REMARK  190  A    between atoms: _467  and  _469
REMARK  191  A    between atoms: _469  and  _470
REMARK  192  A    between atoms: _469  and  _472
REMARK  193  A    between atoms: _472  and  _473
REMARK  194  A    between atoms: _476  and  _478
REMARK  195  A    between atoms: _478  and  _479
REMARK  196  A    between atoms: _478  and  _481
REMARK  197  A    between atoms: _481  and  _482
REMARK  198  A    between atoms: _486  and  _487
REMARK  199  A    between atoms: _492  and  _494
REMARK  200  A    between atoms: _494  and  _495
REMARK  201  A    between atoms: _494  and  _497
REMARK  202  A    between atoms: _500  and  _502
REMARK  203  A    between atoms: _502  and  _503
REMARK  204  A    between atoms: _502  and  _505
REMARK  205  A    between atoms: _505  and  _506
REMARK  206  A    between atoms: _511  and  _513
REMARK  207  A    between atoms: _513  and  _514
REMARK  208  A    between atoms: _513  and  _516
REMARK  209  A    between atoms: _516  and  _517
REMARK  210  A    between atoms: _520  and  _522
REMARK  211  A    between atoms: _522  and  _523
REMARK  212  A    between atoms: _525  and  _527
REMARK  213  A    between atoms: _527  and  _528
REMARK  214  A    between atoms: _527  and  _530
REMARK  215  A    between atoms: _530  and  _531
REMARK  216  A    between atoms: _531  and  _532
REMARK  217  A    between atoms: _532  and  _533
REMARK                            x       y       z     vdW  Elec       q    Type
REMARK                         _______ _______ _______ _____ _____    ______ ____
ROOT
ATOM      1  O   HOH     1       3.110  25.341   3.746  0.00  0.00    +0.000 OA
ENDROOT
TORSDOF 0
REMARK  Name = ../refined-set-2016/1d4y/1d4y_pocket.pdb
REMARK  217 active torsions:
REMARK  status: ('A' for Active; 'I' for Inactive)
REMARK    1  A    between atoms: _1  and  _3
REMARK    2  A    between atoms: _3  and  _4
REMARK    3  A    between atoms: _3  and  _6
REMARK    4  A    between atoms: _6  and  _7
REMARK    5  A    between atoms: _7  and  _8
REMARK    6  A    between atoms: _8  and  _9
REMARK    7  A    between atoms: _18  and  _20
REMARK    8  A    between atoms: _20  and  _21
REMARK    9  A    between atoms: _20  and  _23
REMARK   10  A    between atoms: _23  and  _24
REMARK   11  A    between atoms: _27  and  _29
REMARK   12  A    between atoms: _29  and  _30
REMARK   13  A    between atoms: _29  and  _32
REMARK   14  A    between atoms: _32  and  _33
REMARK   15  A    between atoms: _36  and  _38
REMARK   16  A    between atoms: _38  and  _39
REMARK   17  A    between atoms: _38  and  _41
REMARK   18  A    between atoms: _41  and  _42
REMARK   19  A    between atoms: _45  and  _47
REMARK   20  A    between atoms: _47  and  _48
REMARK   21  A    between atoms: _47  and  _50
REMARK   22  A    between atoms: _50  and  _51
REMARK   23  A    between atoms: _54  and  _56
REMARK   24  A    between atoms: _56  and  _57
REMARK   25  A    between atoms: _56  and  _59
REMARK   26  A    between atoms: _59  and  _60
REMARK   27  A    between atoms: _63  and  _65
REMARK   28  A    between atoms: _65  and  _66
REMARK   29  A    between atoms: _68  and  _70
REMARK   30  A    between atoms: _70  and  _71
REMARK   31  A    between atoms: _74  and  _76
REMARK   32  A    between atoms: _76  and  _77
REMARK   33  A    between atoms: _76  and  _79
REMARK   34  A    between atoms: _79  and  _80
REMARK   35  A    between atoms: _83  and  _85
REMARK   36  A    between atoms: _85  and  _86
REMARK   37  A    between atoms: _85  and  _88
REMARK   38  A    between atoms: _88  and  _89
REMARK   39  A    between atoms: _92  and  _94
REMARK   40  A    between atoms: _94  and  _95
REMARK   41  A    between atoms: _94  and  _97
REMARK   42  A    between atoms: _97  and  _98
REMARK   43  A    between atoms: _101  and  _103
REMARK   44  A    between atoms: _103  and  _104
REMARK   45  A    between atoms: _103  and  _106
REMARK   46  A    between atoms: _109  and  _111
REMARK   47  A    between atoms: _111  and  _112
REMARK   48  A    between atoms: _111  and  _114
REMARK   49  A    between atoms: _114  and  _115
REMARK   50  A    between atoms: _115  and  _116
REMARK   51  A    between atoms: _116  and  _117
REMARK   52  A    between atoms: _117  and  _118
REMARK   53  A    between atoms: _122  and  _124
REMARK   54  A    between atoms: _124  and  _125
REMARK   55  A    between atoms: _124  and  _127
REMARK   56  A    between atoms: _127  and  _128
REMARK   57  A    between atoms: _128  and  _129
REMARK   58  A    between atoms: _131  and  _133
REMARK   59  A    between atoms: _133  and  _134
REMARK   60  A    between atoms: _133  and  _136
REMARK   61  A    between atoms: _136  and  _137
REMARK   62  A    between atoms: _140  and  _142
REMARK   63  A    between atoms: _142  and  _143
REMARK   64  A    between atoms: _145  and  _147
REMARK   65  A    between atoms: _147  and  _148
REMARK   66  A    between atoms: _150  and  _152
REMARK   67  A    between atoms: _152  and  _153
REMARK   68  A    between atoms: _152  and  _155
REMARK   69  A    between atoms: _155  and  _156
REMARK   70  A    between atoms: _159  and  _161
REMARK   71  A    between atoms: _161  and  _162
REMARK   72  A    between atoms: _164  and  _166
REMARK   73  A    between atoms: _166  and  _167
REMARK   74  A    between atoms: _169  and  _171
REMARK   75  A    between atoms: _171  and  _172
REMARK   76  A    between atoms: _171  and  _174
REMARK   77  A    between atoms: _174  and  _175
REMARK   78  A    between atoms: _181  and  _183
REMARK   79  A    between atoms: _183  and  _184
REMARK   80  A    between atoms: _183  and  _186
REMARK   81  A    between atoms: _186  and  _187
REMARK   82  A    between atoms: _190  and  _192
REMARK   83  A    between atoms: _192  and  _193
REMARK   84  A    between atoms: _192  and  _195
REMARK   85  A    between atoms: _198  and  _200
REMARK   86  A    between atoms: _200  and  _201
REMARK   87  A    between atoms: _200  and  _203
REMARK   88  A    between atoms: _203  and  _204
REMARK   89  A    between atoms: _207  and  _209
REMARK   90  A    between atoms: _209  and  _210
REMARK   91  A    between atoms: _209  and  _212
REMARK   92  A    between atoms: _212  and  _213
REMARK   93  A    between atoms: _217  and  _218
REMARK   94  A    between atoms: _223  and  _225
REMARK   95  A    between atoms: _225  and  _226
REMARK   96  A    between atoms: _225  and  _228
REMARK   97  A    between atoms: _231  and  _233
REMARK   98  A    between atoms: _233  and  _234
REMARK   99  A    between atoms: _233  and  _236
REMARK  100  A    between atoms: _236  and  _237
REMARK  101  A    between atoms: _242  and  _244
REMARK  102  A    between atoms: _244  and  _245
REMARK  103  A    between atoms: _244  and  _247
REMARK  104  A    between atoms: _247  and  _248
REMARK  105  A    between atoms: _251  and  _253
REMARK  106  A    between atoms: _253  and  _254
REMARK  107  A    between atoms: _253  and  _256
REMARK  108  A    between atoms: _256  and  _257
REMARK  109  A    between atoms: _260  and  _262
REMARK  110  A    between atoms: _262  and  _263
REMARK  111  A    between atoms: _265  and  _267
REMARK  112  A    between atoms: _267  and  _268
REMARK  113  A    between atoms: _267  and  _270
REMARK  114  A    between atoms: _270  and  _271
REMARK  115  A    between atoms: _271  and  _272
REMARK  116  A    between atoms: _272  and  _273
REMARK  117  A    between atoms: _282  and  _284
REMARK  118  A    between atoms: _284  and  _285
REMARK  119  A    between atoms: _284  and  _287
REMARK  120  A    between atoms: _287  and  _288
REMARK  121  A    between atoms: _293  and  _295
REMARK  122  A    between atoms: _295  and  _296
REMARK  123  A    between atoms: _295  and  _298
REMARK  124  A    between atoms: _298  and  _299
REMARK  125  A    between atoms: _299  and  _300
REMARK  126  A    between atoms: _300  and  _301
REMARK  127  A    between atoms: _311  and  _312
REMARK  128  A    between atoms: _317  and  _319
REMARK  129  A    between atoms: _319  and  _320
REMARK  130  A    between atoms: _319  and  _322
REMARK  131  A    between atoms: _322  and  _323
REMARK  132  A    between atoms: _326  and  _328
REMARK  133  A    between atoms: _328  and  _329
REMARK  134  A    between atoms: _328  and  _331
REMARK  135  A    between atoms: _331  and  _332
REMARK  136  A    between atoms: _335  and  _337
REMARK  137  A    between atoms: _337  and  _338
REMARK  138  A    between atoms: _337  and  _340
REMARK  139  A    between atoms: _340  and  _341
REMARK  140  A    between atoms: _344  and  _346
REMARK  141  A    between atoms: _346  and  _347
REMARK  142  A    between atoms: _346  and  _349
REMARK  143  A    between atoms: _349  and  _350
REMARK  144  A    between atoms: _353  and  _355
REMARK  145  A    between atoms: _355  and  _356
REMARK  146  A    between atoms: _355  and  _358
REMARK  147  A    between atoms: _358  and  _359
REMARK  148  A    between atoms: _362  and  _364
REMARK  149  A    between atoms: _364  and  _365
REMARK  150  A    between atoms: _367  and  _369
REMARK  151  A    between atoms: _369  and  _370
REMARK  152  A    between atoms: _373  and  _375
REMARK  153  A    between atoms: _375  and  _376
REMARK  154  A    between atoms: _375  and  _378
REMARK  155  A    between atoms: _378  and  _379
REMARK  156  A    between atoms: _382  and  _384
REMARK  157  A    between atoms: _384  and  _385
REMARK  158  A    between atoms: _384  and  _387
REMARK  159  A    between atoms: _387  and  _388
REMARK  160  A    between atoms: _391  and  _393
REMARK  161  A    between atoms: _393  and  _394
REMARK  162  A    between atoms: _393  and  _396
REMARK  163  A    between atoms: _396  and  _397
REMARK  164  A    between atoms: _400  and  _402
REMARK  165  A    between atoms: _402  and  _403
REMARK  166  A    between atoms: _402  and  _405
REMARK  167  A    between atoms: _408  and  _410
REMARK  168  A    between atoms: _410  and  _411
REMARK  169  A    between atoms: _410  and  _413
REMARK  170  A    between atoms: _413  and  _414
REMARK  171  A    between atoms: _417  and  _419
REMARK  172  A    between atoms: _419  and  _420
REMARK  173  A    between atoms: _422  and  _424
REMARK  174  A    between atoms: _424  and  _425
REMARK  175  A    between atoms: _429  and  _430
REMARK  176  A    between atoms: _429  and  _432
REMARK  177  A    between atoms: _432  and  _433
REMARK  178  A    between atoms: _436  and  _438
REMARK  179  A    between atoms: _438  and  _439
REMARK  180  A    between atoms: _441  and  _443
REMARK  181  A    between atoms: _443  and  _444
REMARK  182  A    between atoms: _446  and  _448
REMARK  183  A    between atoms: _448  and  _449
REMARK  184  A    between atoms: _448  and  _451
REMARK  185  A    between atoms: _451  and  _452
REMARK  186  A    between atoms: _458  and  _460
REMARK  187  A    between atoms: _460  and  _461
REMARK  188  A    between atoms: _460  and  _463
REMARK  189  A    between atoms: _463  and  _464
REMARK  190  A    between atoms: _467  and  _469
REMARK  191  A    between atoms: _469  and  _470
REMARK  192  A    between atoms: _469  and  _472
REMARK  193  A    between atoms: _472  and  _473
REMARK  194  A    between atoms: _476  and  _478
REMARK  195  A    between atoms: _478  and  _479
REMARK  196  A    between atoms: _478  and  _481
REMARK  197  A    between atoms: _481  and  _482
REMARK  198  A    between atoms: _486  and  _487
REMARK  199  A    between atoms: _492  and  _494
REMARK  200  A    between atoms: _494  and  _495
REMARK  201  A    between atoms: _494  and  _497
REMARK  202  A    between atoms: _500  and  _502
REMARK  203  A    between atoms: _502  and  _503
REMARK  204  A    between atoms: _502  and  _505
REMARK  205  A    between atoms: _505  and  _506
REMARK  206  A    between atoms: _511  and  _513
REMARK  207  A    between atoms: _513  and  _514
REMARK  208  A    between atoms: _513  and  _516
REMARK  209  A    between atoms: _516  and  _517
REMARK  210  A    between atoms: _520  and  _522
REMARK  211  A    between atoms: _522  and  _523
REMARK  212  A    between atoms: _525  and  _527
REMARK  213  A    between atoms: _527  and  _528
REMARK  214  A    between atoms: _527  and  _530
REMARK  215  A    between atoms: _530  and  _531
REMARK  216  A    between atoms: _531  and  _532
REMARK  217  A    between atoms: _532  and  _533
REMARK                            x       y       z     vdW  Elec       q    Type
REMARK                         _______ _______ _______ _____ _____    ______ ____
ROOT
ATOM      1  O   HOH     1      19.750  17.942  13.011  0.00  0.00    +0.000 OA
ENDROOT
TORSDOF 0
REMARK  Name = ../refined-set-2016/1d4y/1d4y_pocket.pdb
REMARK  217 active torsions:
REMARK  status: ('A' for Active; 'I' for Inactive)
REMARK    1  A    between atoms: _1  and  _3
REMARK    2  A    between atoms: _3  and  _4
REMARK    3  A    between atoms: _3  and  _6
REMARK    4  A    between atoms: _6  and  _7
REMARK    5  A    between atoms: _7  and  _8
REMARK    6  A    between atoms: _8  and  _9
REMARK    7  A    between atoms: _18  and  _20
REMARK    8  A    between atoms: _20  and  _21
REMARK    9  A    between atoms: _20  and  _23
REMARK   10  A    between atoms: _23  and  _24
REMARK   11  A    between atoms: _27  and  _29
REMARK   12  A    between atoms: _29  and  _30
REMARK   13  A    between atoms: _29  and  _32
REMARK   14  A    between atoms: _32  and  _33
REMARK   15  A    between atoms: _36  and  _38
REMARK   16  A    between atoms: _38  and  _39
REMARK   17  A    between atoms: _38  and  _41
REMARK   18  A    between atoms: _41  and  _42
REMARK   19  A    between atoms: _45  and  _47
REMARK   20  A    between atoms: _47  and  _48
REMARK   21  A    between atoms: _47  and  _50
REMARK   22  A    between atoms: _50  and  _51
REMARK   23  A    between atoms: _54  and  _56
REMARK   24  A    between atoms: _56  and  _57
REMARK   25  A    between atoms: _56  and  _59
REMARK   26  A    between atoms: _59  and  _60
REMARK   27  A    between atoms: _63  and  _65
REMARK   28  A    between atoms: _65  and  _66
REMARK   29  A    between atoms: _68  and  _70
REMARK   30  A    between atoms: _70  and  _71
REMARK   31  A    between atoms: _74  and  _76
REMARK   32  A    between atoms: _76  and  _77
REMARK   33  A    between atoms: _76  and  _79
REMARK   34  A    between atoms: _79  and  _80
REMARK   35  A    between atoms: _83  and  _85
REMARK   36  A    between atoms: _85  and  _86
REMARK   37  A    between atoms: _85  and  _88
REMARK   38  A    between atoms: _88  and  _89
REMARK   39  A    between atoms: _92  and  _94
REMARK   40  A    between atoms: _94  and  _95
REMARK   41  A    between atoms: _94  and  _97
REMARK   42  A    between atoms: _97  and  _98
REMARK   43  A    between atoms: _101  and  _103
REMARK   44  A    between atoms: _103  and  _104
REMARK   45  A    between atoms: _103  and  _106
REMARK   46  A    between atoms: _109  and  _111
REMARK   47  A    between atoms: _111  and  _112
REMARK   48  A    between atoms: _111  and  _114
REMARK   49  A    between atoms: _114  and  _115
REMARK   50  A    between atoms: _115  and  _116
REMARK   51  A    between atoms: _116  and  _117
REMARK   52  A    between atoms: _117  and  _118
REMARK   53  A    between atoms: _122  and  _124
REMARK   54  A    between atoms: _124  and  _125
REMARK   55  A    between atoms: _124  and  _127
REMARK   56  A    between atoms: _127  and  _128
REMARK   57  A    between atoms: _128  and  _129
REMARK   58  A    between atoms: _131  and  _133
REMARK   59  A    between atoms: _133  and  _134
REMARK   60  A    between atoms: _133  and  _136
REMARK   61  A    between atoms: _136  and  _137
REMARK   62  A    between atoms: _140  and  _142
REMARK   63  A    between atoms: _142  and  _143
REMARK   64  A    between atoms: _145  and  _147
REMARK   65  A    between atoms: _147  and  _148
REMARK   66  A    between atoms: _150  and  _152
REMARK   67  A    between atoms: _152  and  _153
REMARK   68  A    between atoms: _152  and  _155
REMARK   69  A    between atoms: _155  and  _156
REMARK   70  A    between atoms: _159  and  _161
REMARK   71  A    between atoms: _161  and  _162
REMARK   72  A    between atoms: _164  and  _166
REMARK   73  A    between atoms: _166  and  _167
REMARK   74  A    between atoms: _169  and  _171
REMARK   75  A    between atoms: _171  and  _172
REMARK   76  A    between atoms: _171  and  _174
REMARK   77  A    between atoms: _174  and  _175
REMARK   78  A    between atoms: _181  and  _183
REMARK   79  A    between atoms: _183  and  _184
REMARK   80  A    between atoms: _183  and  _186
REMARK   81  A    between atoms: _186  and  _187
REMARK   82  A    between atoms: _190  and  _192
REMARK   83  A    between atoms: _192  and  _193
REMARK   84  A    between atoms: _192  and  _195
REMARK   85  A    between atoms: _198  and  _200
REMARK   86  A    between atoms: _200  and  _201
REMARK   87  A    between atoms: _200  and  _203
REMARK   88  A    between atoms: _203  and  _204
REMARK   89  A    between atoms: _207  and  _209
REMARK   90  A    between atoms: _209  and  _210
REMARK   91  A    between atoms: _209  and  _212
REMARK   92  A    between atoms: _212  and  _213
REMARK   93  A    between atoms: _217  and  _218
REMARK   94  A    between atoms: _223  and  _225
REMARK   95  A    between atoms: _225  and  _226
REMARK   96  A    between atoms: _225  and  _228
REMARK   97  A    between atoms: _231  and  _233
REMARK   98  A    between atoms: _233  and  _234
REMARK   99  A    between atoms: _233  and  _236
REMARK  100  A    between atoms: _236  and  _237
REMARK  101  A    between atoms: _242  and  _244
REMARK  102  A    between atoms: _244  and  _245
REMARK  103  A    between atoms: _244  and  _247
REMARK  104  A    between atoms: _247  and  _248
REMARK  105  A    between atoms: _251  and  _253
REMARK  106  A    between atoms: _253  and  _254
REMARK  107  A    between atoms: _253  and  _256
REMARK  108  A    between atoms: _256  and  _257
REMARK  109  A    between atoms: _260  and  _262
REMARK  110  A    between atoms: _262  and  _263
REMARK  111  A    between atoms: _265  and  _267
REMARK  112  A    between atoms: _267  and  _268
REMARK  113  A    between atoms: _267  and  _270
REMARK  114  A    between atoms: _270  and  _271
REMARK  115  A    between atoms: _271  and  _272
REMARK  116  A    between atoms: _272  and  _273
REMARK  117  A    between atoms: _282  and  _284
REMARK  118  A    between atoms: _284  and  _285
REMARK  119  A    between atoms: _284  and  _287
REMARK  120  A    between atoms: _287  and  _288
REMARK  121  A    between atoms: _293  and  _295
REMARK  122  A    between atoms: _295  and  _296
REMARK  123  A    between atoms: _295  and  _298
REMARK  124  A    between atoms: _298  and  _299
REMARK  125  A    between atoms: _299  and  _300
REMARK  126  A    between atoms: _300  and  _301
REMARK  127  A    between atoms: _311  and  _312
REMARK  128  A    between atoms: _317  and  _319
REMARK  129  A    between atoms: _319  and  _320
REMARK  130  A    between atoms: _319  and  _322
REMARK  131  A    between atoms: _322  and  _323
REMARK  132  A    between atoms: _326  and  _328
REMARK  133  A    between atoms: _328  and  _329
REMARK  134  A    between atoms: _328  and  _331
REMARK  135  A    between atoms: _331  and  _332
REMARK  136  A    between atoms: _335  and  _337
REMARK  137  A    between atoms: _337  and  _338
REMARK  138  A    between atoms: _337  and  _340
REMARK  139  A    between atoms: _340  and  _341
REMARK  140  A    between atoms: _344  and  _346
REMARK  141  A    between atoms: _346  and  _347
REMARK  142  A    between atoms: _346  and  _349
REMARK  143  A    between atoms: _349  and  _350
REMARK  144  A    between atoms: _353  and  _355
REMARK  145  A    between atoms: _355  and  _356
REMARK  146  A    between atoms: _355  and  _358
REMARK  147  A    between atoms: _358  and  _359
REMARK  148  A    between atoms: _362  and  _364
REMARK  149  A    between atoms: _364  and  _365
REMARK  150  A    between atoms: _367  and  _369
REMARK  151  A    between atoms: _369  and  _370
REMARK  152  A    between atoms: _373  and  _375
REMARK  153  A    between atoms: _375  and  _376
REMARK  154  A    between atoms: _375  and  _378
REMARK  155  A    between atoms: _378  and  _379
REMARK  156  A    between atoms: _382  and  _384
REMARK  157  A    between atoms: _384  and  _385
REMARK  158  A    between atoms: _384  and  _387
REMARK  159  A    between atoms: _387  and  _388
REMARK  160  A    between atoms: _391  and  _393
REMARK  161  A    between atoms: _393  and  _394
REMARK  162  A    between atoms: _393  and  _396
REMARK  163  A    between atoms: _396  and  _397
REMARK  164  A    between atoms: _400  and  _402
REMARK  165  A    between atoms: _402  and  _403
REMARK  166  A    between atoms: _402  and  _405
REMARK  167  A    between atoms: _408  and  _410
REMARK  168  A    between atoms: _410  and  _411
REMARK  169  A    between atoms: _410  and  _413
REMARK  170  A    between atoms: _413  and  _414
REMARK  171  A    between atoms: _417  and  _419
REMARK  172  A    between atoms: _419  and  _420
REMARK  173  A    between atoms: _422  and  _424
REMARK  174  A    between atoms: _424  and  _425
REMARK  175  A    between atoms: _429  and  _430
REMARK  176  A    between atoms: _429  and  _432
REMARK  177  A    between atoms: _432  and  _433
REMARK  178  A    between atoms: _436  and  _438
REMARK  179  A    between atoms: _438  and  _439
REMARK  180  A    between atoms: _441  and  _443
REMARK  181  A    between atoms: _443  and  _444
REMARK  182  A    between atoms: _446  and  _448
REMARK  183  A    between atoms: _448  and  _449
REMARK  184  A    between atoms: _448  and  _451
REMARK  185  A    between atoms: _451  and  _452
REMARK  186  A    between atoms: _458  and  _460
REMARK  187  A    between atoms: _460  and  _461
REMARK  188  A    between atoms: _460  and  _463
REMARK  189  A    between atoms: _463  and  _464
REMARK  190  A    between atoms: _467  and  _469
REMARK  191  A    between atoms: _469  and  _470
REMARK  192  A    between atoms: _469  and  _472
REMARK  193  A    between atoms: _472  and  _473
REMARK  194  A    between atoms: _476  and  _478
REMARK  195  A    between atoms: _478  and  _479
REMARK  196  A    between atoms: _478  and  _481
REMARK  197  A    between atoms: _481  and  _482
REMARK  198  A    between atoms: _486  and  _487
REMARK  199  A    between atoms: _492  and  _494
REMARK  200  A    between atoms: _494  and  _495
REMARK  201  A    between atoms: _494  and  _497
REMARK  202  A    between atoms: _500  and  _502
REMARK  203  A    between atoms: _502  and  _503
REMARK  204  A    between atoms: _502  and  _505
REMARK  205  A    between atoms: _505  and  _506
REMARK  206  A    between atoms: _511  and  _513
REMARK  207  A    between atoms: _513  and  _514
REMARK  208  A    between atoms: _513  and  _516
REMARK  209  A    between atoms: _516  and  _517
REMARK  210  A    between atoms: _520  and  _522
REMARK  211  A    between atoms: _522  and  _523
REMARK  212  A    between atoms: _525  and  _527
REMARK  213  A    between atoms: _527  and  _528
REMARK  214  A    between atoms: _527  and  _530
REMARK  215  A    between atoms: _530  and  _531
REMARK  216  A    between atoms: _531  and  _532
REMARK  217  A    between atoms: _532  and  _533
REMARK                            x       y       z     vdW  Elec       q    Type
REMARK                         _______ _______ _______ _____ _____    ______ ____
ROOT
ATOM      1  O   HOH     1      23.078  21.509  12.867  0.00  0.00    +0.000 OA
ENDROOT
TORSDOF 0
REMARK  Name = ../refined-set-2016/1d4y/1d4y_pocket.pdb
REMARK  217 active torsions:
REMARK  status: ('A' for Active; 'I' for Inactive)
REMARK    1  A    between atoms: _1  and  _3
REMARK    2  A    between atoms: _3  and  _4
REMARK    3  A    between atoms: _3  and  _6
REMARK    4  A    between atoms: _6  and  _7
REMARK    5  A    between atoms: _7  and  _8
REMARK    6  A    between atoms: _8  and  _9
REMARK    7  A    between atoms: _18  and  _20
REMARK    8  A    between atoms: _20  and  _21
REMARK    9  A    between atoms: _20  and  _23
REMARK   10  A    between atoms: _23  and  _24
REMARK   11  A    between atoms: _27  and  _29
REMARK   12  A    between atoms: _29  and  _30
REMARK   13  A    between atoms: _29  and  _32
REMARK   14  A    between atoms: _32  and  _33
REMARK   15  A    between atoms: _36  and  _38
REMARK   16  A    between atoms: _38  and  _39
REMARK   17  A    between atoms: _38  and  _41
REMARK   18  A    between atoms: _41  and  _42
REMARK   19  A    between atoms: _45  and  _47
REMARK   20  A    between atoms: _47  and  _48
REMARK   21  A    between atoms: _47  and  _50
REMARK   22  A    between atoms: _50  and  _51
REMARK   23  A    between atoms: _54  and  _56
REMARK   24  A    between atoms: _56  and  _57
REMARK   25  A    between atoms: _56  and  _59
REMARK   26  A    between atoms: _59  and  _60
REMARK   27  A    between atoms: _63  and  _65
REMARK   28  A    between atoms: _65  and  _66
REMARK   29  A    between atoms: _68  and  _70
REMARK   30  A    between atoms: _70  and  _71
REMARK   31  A    between atoms: _74  and  _76
REMARK   32  A    between atoms: _76  and  _77
REMARK   33  A    between atoms: _76  and  _79
REMARK   34  A    between atoms: _79  and  _80
REMARK   35  A    between atoms: _83  and  _85
REMARK   36  A    between atoms: _85  and  _86
REMARK   37  A    between atoms: _85  and  _88
REMARK   38  A    between atoms: _88  and  _89
REMARK   39  A    between atoms: _92  and  _94
REMARK   40  A    between atoms: _94  and  _95
REMARK   41  A    between atoms: _94  and  _97
REMARK   42  A    between atoms: _97  and  _98
REMARK   43  A    between atoms: _101  and  _103
REMARK   44  A    between atoms: _103  and  _104
REMARK   45  A    between atoms: _103  and  _106
REMARK   46  A    between atoms: _109  and  _111
REMARK   47  A    between atoms: _111  and  _112
REMARK   48  A    between atoms: _111  and  _114
REMARK   49  A    between atoms: _114  and  _115
REMARK   50  A    between atoms: _115  and  _116
REMARK   51  A    between atoms: _116  and  _117
REMARK   52  A    between atoms: _117  and  _118
REMARK   53  A    between atoms: _122  and  _124
REMARK   54  A    between atoms: _124  and  _125
REMARK   55  A    between atoms: _124  and  _127
REMARK   56  A    between atoms: _127  and  _128
REMARK   57  A    between atoms: _128  and  _129
REMARK   58  A    between atoms: _131  and  _133
REMARK   59  A    between atoms: _133  and  _134
REMARK   60  A    between atoms: _133  and  _136
REMARK   61  A    between atoms: _136  and  _137
REMARK   62  A    between atoms: _140  and  _142
REMARK   63  A    between atoms: _142  and  _143
REMARK   64  A    between atoms: _145  and  _147
REMARK   65  A    between atoms: _147  and  _148
REMARK   66  A    between atoms: _150  and  _152
REMARK   67  A    between atoms: _152  and  _153
REMARK   68  A    between atoms: _152  and  _155
REMARK   69  A    between atoms: _155  and  _156
REMARK   70  A    between atoms: _159  and  _161
REMARK   71  A    between atoms: _161  and  _162
REMARK   72  A    between atoms: _164  and  _166
REMARK   73  A    between atoms: _166  and  _167
REMARK   74  A    between atoms: _169  and  _171
REMARK   75  A    between atoms: _171  and  _172
REMARK   76  A    between atoms: _171  and  _174
REMARK   77  A    between atoms: _174  and  _175
REMARK   78  A    between atoms: _181  and  _183
REMARK   79  A    between atoms: _183  and  _184
REMARK   80  A    between atoms: _183  and  _186
REMARK   81  A    between atoms: _186  and  _187
REMARK   82  A    between atoms: _190  and  _192
REMARK   83  A    between atoms: _192  and  _193
REMARK   84  A    between atoms: _192  and  _195
REMARK   85  A    between atoms: _198  and  _200
REMARK   86  A    between atoms: _200  and  _201
REMARK   87  A    between atoms: _200  and  _203
REMARK   88  A    between atoms: _203  and  _204
REMARK   89  A    between atoms: _207  and  _209
REMARK   90  A    between atoms: _209  and  _210
REMARK   91  A    between atoms: _209  and  _212
REMARK   92  A    between atoms: _212  and  _213
REMARK   93  A    between atoms: _217  and  _218
REMARK   94  A    between atoms: _223  and  _225
REMARK   95  A    between atoms: _225  and  _226
REMARK   96  A    between atoms: _225  and  _228
REMARK   97  A    between atoms: _231  and  _233
REMARK   98  A    between atoms: _233  and  _234
REMARK   99  A    between atoms: _233  and  _236
REMARK  100  A    between atoms: _236  and  _237
REMARK  101  A    between atoms: _242  and  _244
REMARK  102  A    between atoms: _244  and  _245
REMARK  103  A    between atoms: _244  and  _247
REMARK  104  A    between atoms: _247  and  _248
REMARK  105  A    between atoms: _251  and  _253
REMARK  106  A    between atoms: _253  and  _254
REMARK  107  A    between atoms: _253  and  _256
REMARK  108  A    between atoms: _256  and  _257
REMARK  109  A    between atoms: _260  and  _262
REMARK  110  A    between atoms: _262  and  _263
REMARK  111  A    between atoms: _265  and  _267
REMARK  112  A    between atoms: _267  and  _268
REMARK  113  A    between atoms: _267  and  _270
REMARK  114  A    between atoms: _270  and  _271
REMARK  115  A    between atoms: _271  and  _272
REMARK  116  A    between atoms: _272  and  _273
REMARK  117  A    between atoms: _282  and  _284
REMARK  118  A    between atoms: _284  and  _285
REMARK  119  A    between atoms: _284  and  _287
REMARK  120  A    between atoms: _287  and  _288
REMARK  121  A    between atoms: _293  and  _295
REMARK  122  A    between atoms: _295  and  _296
REMARK  123  A    between atoms: _295  and  _298
REMARK  124  A    between atoms: _298  and  _299
REMARK  125  A    between atoms: _299  and  _300
REMARK  126  A    between atoms: _300  and  _301
REMARK  127  A    between atoms: _311  and  _312
REMARK  128  A    between atoms: _317  and  _319
REMARK  129  A    between atoms: _319  and  _320
REMARK  130  A    between atoms: _319  and  _322
REMARK  131  A    between atoms: _322  and  _323
REMARK  132  A    between atoms: _326  and  _328
REMARK  133  A    between atoms: _328  and  _329
REMARK  134  A    between atoms: _328  and  _331
REMARK  135  A    between atoms: _331  and  _332
REMARK  136  A    between atoms: _335  and  _337
REMARK  137  A    between atoms: _337  and  _338
REMARK  138  A    between atoms: _337  and  _340
REMARK  139  A    between atoms: _340  and  _341
REMARK  140  A    between atoms: _344  and  _346
REMARK  141  A    between atoms: _346  and  _347
REMARK  142  A    between atoms: _346  and  _349
REMARK  143  A    between atoms: _349  and  _350
REMARK  144  A    between atoms: _353  and  _355
REMARK  145  A    between atoms: _355  and  _356
REMARK  146  A    between atoms: _355  and  _358
REMARK  147  A    between atoms: _358  and  _359
REMARK  148  A    between atoms: _362  and  _364
REMARK  149  A    between atoms: _364  and  _365
REMARK  150  A    between atoms: _367  and  _369
REMARK  151  A    between atoms: _369  and  _370
REMARK  152  A    between atoms: _373  and  _375
REMARK  153  A    between atoms: _375  and  _376
REMARK  154  A    between atoms: _375  and  _378
REMARK  155  A    between atoms: _378  and  _379
REMARK  156  A    between atoms: _382  and  _384
REMARK  157  A    between atoms: _384  and  _385
REMARK  158  A    between atoms: _384  and  _387
REMARK  159  A    between atoms: _387  and  _388
REMARK  160  A    between atoms: _391  and  _393
REMARK  161  A    between atoms: _393  and  _394
REMARK  162  A    between atoms: _393  and  _396
REMARK  163  A    between atoms: _396  and  _397
REMARK  164  A    between atoms: _400  and  _402
REMARK  165  A    between atoms: _402  and  _403
REMARK  166  A    between atoms: _402  and  _405
REMARK  167  A    between atoms: _408  and  _410
REMARK  168  A    between atoms: _410  and  _411
REMARK  169  A    between atoms: _410  and  _413
REMARK  170  A    between atoms: _413  and  _414
REMARK  171  A    between atoms: _417  and  _419
REMARK  172  A    between atoms: _419  and  _420
REMARK  173  A    between atoms: _422  and  _424
REMARK  174  A    between atoms: _424  and  _425
REMARK  175  A    between atoms: _429  and  _430
REMARK  176  A    between atoms: _429  and  _432
REMARK  177  A    between atoms: _432  and  _433
REMARK  178  A    between atoms: _436  and  _438
REMARK  179  A    between atoms: _438  and  _439
REMARK  180  A    between atoms: _441  and  _443
REMARK  181  A    between atoms: _443  and  _444
REMARK  182  A    between atoms: _446  and  _448
REMARK  183  A    between atoms: _448  and  _449
REMARK  184  A    between atoms: _448  and  _451
REMARK  185  A    between atoms: _451  and  _452
REMARK  186  A    between atoms: _458  and  _460
REMARK  187  A    between atoms: _460  and  _461
REMARK  188  A    between atoms: _460  and  _463
REMARK  189  A    between atoms: _463  and  _464
REMARK  190  A    between atoms: _467  and  _469
REMARK  191  A    between atoms: _469  and  _470
REMARK  192  A    between atoms: _469  and  _472
REMARK  193  A    between atoms: _472  and  _473
REMARK  194  A    between atoms: _476  and  _478
REMARK  195  A    between atoms: _478  and  _479
REMARK  196  A    between atoms: _478  and  _481
REMARK  197  A    between atoms: _481  and  _482
REMARK  198  A    between atoms: _486  and  _487
REMARK  199  A    between atoms: _492  and  _494
REMARK  200  A    between atoms: _494  and  _495
REMARK  201  A    between atoms: _494  and  _497
REMARK  202  A    between atoms: _500  and  _502
REMARK  203  A    between atoms: _502  and  _503
REMARK  204  A    between atoms: _502  and  _505
REMARK  205  A    between atoms: _505  and  _506
REMARK  206  A    between atoms: _511  and  _513
REMARK  207  A    between atoms: _513  and  _514
REMARK  208  A    between atoms: _513  and  _516
REMARK  209  A    between atoms: _516  and  _517
REMARK  210  A    between atoms: _520  and  _522
REMARK  211  A    between atoms: _522  and  _523
REMARK  212  A    between atoms: _525  and  _527
REMARK  213  A    between atoms: _527  and  _528
REMARK  214  A    between atoms: _527  and  _530
REMARK  215  A    between atoms: _530  and  _531
REMARK  216  A    between atoms: _531  and  _532
REMARK  217  A    between atoms: _532  and  _533
REMARK                            x       y       z     vdW  Elec       q    Type
REMARK                         _______ _______ _______ _____ _____    ______ ____
ROOT
ATOM      1  O   HOH     1      22.408  23.637   4.832  0.00  0.00    +0.000 OA
ENDROOT
TORSDOF 0
REMARK  Name = ../refined-set-2016/1d4y/1d4y_pocket.pdb
REMARK  217 active torsions:
REMARK  status: ('A' for Active; 'I' for Inactive)
REMARK    1  A    between atoms: _1  and  _3
REMARK    2  A    between atoms: _3  and  _4
REMARK    3  A    between atoms: _3  and  _6
REMARK    4  A    between atoms: _6  and  _7
REMARK    5  A    between atoms: _7  and  _8
REMARK    6  A    between atoms: _8  and  _9
REMARK    7  A    between atoms: _18  and  _20
REMARK    8  A    between atoms: _20  and  _21
REMARK    9  A    between atoms: _20  and  _23
REMARK   10  A    between atoms: _23  and  _24
REMARK   11  A    between atoms: _27  and  _29
REMARK   12  A    between atoms: _29  and  _30
REMARK   13  A    between atoms: _29  and  _32
REMARK   14  A    between atoms: _32  and  _33
REMARK   15  A    between atoms: _36  and  _38
REMARK   16  A    between atoms: _38  and  _39
REMARK   17  A    between atoms: _38  and  _41
REMARK   18  A    between atoms: _41  and  _42
REMARK   19  A    between atoms: _45  and  _47
REMARK   20  A    between atoms: _47  and  _48
REMARK   21  A    between atoms: _47  and  _50
REMARK   22  A    between atoms: _50  and  _51
REMARK   23  A    between atoms: _54  and  _56
REMARK   24  A    between atoms: _56  and  _57
REMARK   25  A    between atoms: _56  and  _59
REMARK   26  A    between atoms: _59  and  _60
REMARK   27  A    between atoms: _63  and  _65
REMARK   28  A    between atoms: _65  and  _66
REMARK   29  A    between atoms: _68  and  _70
REMARK   30  A    between atoms: _70  and  _71
REMARK   31  A    between atoms: _74  and  _76
REMARK   32  A    between atoms: _76  and  _77
REMARK   33  A    between atoms: _76  and  _79
REMARK   34  A    between atoms: _79  and  _80
REMARK   35  A    between atoms: _83  and  _85
REMARK   36  A    between atoms: _85  and  _86
REMARK   37  A    between atoms: _85  and  _88
REMARK   38  A    between atoms: _88  and  _89
REMARK   39  A    between atoms: _92  and  _94
REMARK   40  A    between atoms: _94  and  _95
REMARK   41  A    between atoms: _94  and  _97
REMARK   42  A    between atoms: _97  and  _98
REMARK   43  A    between atoms: _101  and  _103
REMARK   44  A    between atoms: _103  and  _104
REMARK   45  A    between atoms: _103  and  _106
REMARK   46  A    between atoms: _109  and  _111
REMARK   47  A    between atoms: _111  and  _112
REMARK   48  A    between atoms: _111  and  _114
REMARK   49  A    between atoms: _114  and  _115
REMARK   50  A    between atoms: _115  and  _116
REMARK   51  A    between atoms: _116  and  _117
REMARK   52  A    between atoms: _117  and  _118
REMARK   53  A    between atoms: _122  and  _124
REMARK   54  A    between atoms: _124  and  _125
REMARK   55  A    between atoms: _124  and  _127
REMARK   56  A    between atoms: _127  and  _128
REMARK   57  A    between atoms: _128  and  _129
REMARK   58  A    between atoms: _131  and  _133
REMARK   59  A    between atoms: _133  and  _134
REMARK   60  A    between atoms: _133  and  _136
REMARK   61  A    between atoms: _136  and  _137
REMARK   62  A    between atoms: _140  and  _142
REMARK   63  A    between atoms: _142  and  _143
REMARK   64  A    between atoms: _145  and  _147
REMARK   65  A    between atoms: _147  and  _148
REMARK   66  A    between atoms: _150  and  _152
REMARK   67  A    between atoms: _152  and  _153
REMARK   68  A    between atoms: _152  and  _155
REMARK   69  A    between atoms: _155  and  _156
REMARK   70  A    between atoms: _159  and  _161
REMARK   71  A    between atoms: _161  and  _162
REMARK   72  A    between atoms: _164  and  _166
REMARK   73  A    between atoms: _166  and  _167
REMARK   74  A    between atoms: _169  and  _171
REMARK   75  A    between atoms: _171  and  _172
REMARK   76  A    between atoms: _171  and  _174
REMARK   77  A    between atoms: _174  and  _175
REMARK   78  A    between atoms: _181  and  _183
REMARK   79  A    between atoms: _183  and  _184
REMARK   80  A    between atoms: _183  and  _186
REMARK   81  A    between atoms: _186  and  _187
REMARK   82  A    between atoms: _190  and  _192
REMARK   83  A    between atoms: _192  and  _193
REMARK   84  A    between atoms: _192  and  _195
REMARK   85  A    between atoms: _198  and  _200
REMARK   86  A    between atoms: _200  and  _201
REMARK   87  A    between atoms: _200  and  _203
REMARK   88  A    between atoms: _203  and  _204
REMARK   89  A    between atoms: _207  and  _209
REMARK   90  A    between atoms: _209  and  _210
REMARK   91  A    between atoms: _209  and  _212
REMARK   92  A    between atoms: _212  and  _213
REMARK   93  A    between atoms: _217  and  _218
REMARK   94  A    between atoms: _223  and  _225
REMARK   95  A    between atoms: _225  and  _226
REMARK   96  A    between atoms: _225  and  _228
REMARK   97  A    between atoms: _231  and  _233
REMARK   98  A    between atoms: _233  and  _234
REMARK   99  A    between atoms: _233  and  _236
REMARK  100  A    between atoms: _236  and  _237
REMARK  101  A    between atoms: _242  and  _244
REMARK  102  A    between atoms: _244  and  _245
REMARK  103  A    between atoms: _244  and  _247
REMARK  104  A    between atoms: _247  and  _248
REMARK  105  A    between atoms: _251  and  _253
REMARK  106  A    between atoms: _253  and  _254
REMARK  107  A    between atoms: _253  and  _256
REMARK  108  A    between atoms: _256  and  _257
REMARK  109  A    between atoms: _260  and  _262
REMARK  110  A    between atoms: _262  and  _263
REMARK  111  A    between atoms: _265  and  _267
REMARK  112  A    between atoms: _267  and  _268
REMARK  113  A    between atoms: _267  and  _270
REMARK  114  A    between atoms: _270  and  _271
REMARK  115  A    between atoms: _271  and  _272
REMARK  116  A    between atoms: _272  and  _273
REMARK  117  A    between atoms: _282  and  _284
REMARK  118  A    between atoms: _284  and  _285
REMARK  119  A    between atoms: _284  and  _287
REMARK  120  A    between atoms: _287  and  _288
REMARK  121  A    between atoms: _293  and  _295
REMARK  122  A    between atoms: _295  and  _296
REMARK  123  A    between atoms: _295  and  _298
REMARK  124  A    between atoms: _298  and  _299
REMARK  125  A    between atoms: _299  and  _300
REMARK  126  A    between atoms: _300  and  _301
REMARK  127  A    between atoms: _311  and  _312
REMARK  128  A    between atoms: _317  and  _319
REMARK  129  A    between atoms: _319  and  _320
REMARK  130  A    between atoms: _319  and  _322
REMARK  131  A    between atoms: _322  and  _323
REMARK  132  A    between atoms: _326  and  _328
REMARK  133  A    between atoms: _328  and  _329
REMARK  134  A    between atoms: _328  and  _331
REMARK  135  A    between atoms: _331  and  _332
REMARK  136  A    between atoms: _335  and  _337
REMARK  137  A    between atoms: _337  and  _338
REMARK  138  A    between atoms: _337  and  _340
REMARK  139  A    between atoms: _340  and  _341
REMARK  140  A    between atoms: _344  and  _346
REMARK  141  A    between atoms: _346  and  _347
REMARK  142  A    between atoms: _346  and  _349
REMARK  143  A    between atoms: _349  and  _350
REMARK  144  A    between atoms: _353  and  _355
REMARK  145  A    between atoms: _355  and  _356
REMARK  146  A    between atoms: _355  and  _358
REMARK  147  A    between atoms: _358  and  _359
REMARK  148  A    between atoms: _362  and  _364
REMARK  149  A    between atoms: _364  and  _365
REMARK  150  A    between atoms: _367  and  _369
REMARK  151  A    between atoms: _369  and  _370
REMARK  152  A    between atoms: _373  and  _375
REMARK  153  A    between atoms: _375  and  _376
REMARK  154  A    between atoms: _375  and  _378
REMARK  155  A    between atoms: _378  and  _379
REMARK  156  A    between atoms: _382  and  _384
REMARK  157  A    between atoms: _384  and  _385
REMARK  158  A    between atoms: _384  and  _387
REMARK  159  A    between atoms: _387  and  _388
REMARK  160  A    between atoms: _391  and  _393
REMARK  161  A    between atoms: _393  and  _394
REMARK  162  A    between atoms: _393  and  _396
REMARK  163  A    between atoms: _396  and  _397
REMARK  164  A    between atoms: _400  and  _402
REMARK  165  A    between atoms: _402  and  _403
REMARK  166  A    between atoms: _402  and  _405
REMARK  167  A    between atoms: _408  and  _410
REMARK  168  A    between atoms: _410  and  _411
REMARK  169  A    between atoms: _410  and  _413
REMARK  170  A    between atoms: _413  and  _414
REMARK  171  A    between atoms: _417  and  _419
REMARK  172  A    between atoms: _419  and  _420
REMARK  173  A    between atoms: _422  and  _424
REMARK  174  A    between atoms: _424  and  _425
REMARK  175  A    between atoms: _429  and  _430
REMARK  176  A    between atoms: _429  and  _432
REMARK  177  A    between atoms: _432  and  _433
REMARK  178  A    between atoms: _436  and  _438
REMARK  179  A    between atoms: _438  and  _439
REMARK  180  A    between atoms: _441  and  _443
REMARK  181  A    between atoms: _443  and  _444
REMARK  182  A    between atoms: _446  and  _448
REMARK  183  A    between atoms: _448  and  _449
REMARK  184  A    between atoms: _448  and  _451
REMARK  185  A    between atoms: _451  and  _452
REMARK  186  A    between atoms: _458  and  _460
REMARK  187  A    between atoms: _460  and  _461
REMARK  188  A    between atoms: _460  and  _463
REMARK  189  A    between atoms: _463  and  _464
REMARK  190  A    between atoms: _467  and  _469
REMARK  191  A    between atoms: _469  and  _470
REMARK  192  A    between atoms: _469  and  _472
REMARK  193  A    between atoms: _472  and  _473
REMARK  194  A    between atoms: _476  and  _478
REMARK  195  A    between atoms: _478  and  _479
REMARK  196  A    between atoms: _478  and  _481
REMARK  197  A    between atoms: _481  and  _482
REMARK  198  A    between atoms: _486  and  _487
REMARK  199  A    between atoms: _492  and  _494
REMARK  200  A    between atoms: _494  and  _495
REMARK  201  A    between atoms: _494  and  _497
REMARK  202  A    between atoms: _500  and  _502
REMARK  203  A    between atoms: _502  and  _503
REMARK  204  A    between atoms: _502  and  _505
REMARK  205  A    between atoms: _505  and  _506
REMARK  206  A    between atoms: _511  and  _513
REMARK  207  A    between atoms: _513  and  _514
REMARK  208  A    between atoms: _513  and  _516
REMARK  209  A    between atoms: _516  and  _517
REMARK  210  A    between atoms: _520  and  _522
REMARK  211  A    between atoms: _522  and  _523
REMARK  212  A    between atoms: _525  and  _527
REMARK  213  A    between atoms: _527  and  _528
REMARK  214  A    between atoms: _527  and  _530
REMARK  215  A    between atoms: _530  and  _531
REMARK  216  A    between atoms: _531  and  _532
REMARK  217  A    between atoms: _532  and  _533
REMARK                            x       y       z     vdW  Elec       q    Type
REMARK                         _______ _______ _______ _____ _____    ______ ____
ROOT
ATOM      1  O   HOH     1      18.113  17.431   4.287  0.00  0.00    +0.000 OA
ENDROOT
TORSDOF 0
REMARK  Name = ../refined-set-2016/1d4y/1d4y_pocket.pdb
REMARK  217 active torsions:
REMARK  status: ('A' for Active; 'I' for Inactive)
REMARK    1  A    between atoms: _1  and  _3
REMARK    2  A    between atoms: _3  and  _4
REMARK    3  A    between atoms: _3  and  _6
REMARK    4  A    between atoms: _6  and  _7
REMARK    5  A    between atoms: _7  and  _8
REMARK    6  A    between atoms: _8  and  _9
REMARK    7  A    between atoms: _18  and  _20
REMARK    8  A    between atoms: _20  and  _21
REMARK    9  A    between atoms: _20  and  _23
REMARK   10  A    between atoms: _23  and  _24
REMARK   11  A    between atoms: _27  and  _29
REMARK   12  A    between atoms: _29  and  _30
REMARK   13  A    between atoms: _29  and  _32
REMARK   14  A    between atoms: _32  and  _33
REMARK   15  A    between atoms: _36  and  _38
REMARK   16  A    between atoms: _38  and  _39
REMARK   17  A    between atoms: _38  and  _41
REMARK   18  A    between atoms: _41  and  _42
REMARK   19  A    between atoms: _45  and  _47
REMARK   20  A    between atoms: _47  and  _48
REMARK   21  A    between atoms: _47  and  _50
REMARK   22  A    between atoms: _50  and  _51
REMARK   23  A    between atoms: _54  and  _56
REMARK   24  A    between atoms: _56  and  _57
REMARK   25  A    between atoms: _56  and  _59
REMARK   26  A    between atoms: _59  and  _60
REMARK   27  A    between atoms: _63  and  _65
REMARK   28  A    between atoms: _65  and  _66
REMARK   29  A    between atoms: _68  and  _70
REMARK   30  A    between atoms: _70  and  _71
REMARK   31  A    between atoms: _74  and  _76
REMARK   32  A    between atoms: _76  and  _77
REMARK   33  A    between atoms: _76  and  _79
REMARK   34  A    between atoms: _79  and  _80
REMARK   35  A    between atoms: _83  and  _85
REMARK   36  A    between atoms: _85  and  _86
REMARK   37  A    between atoms: _85  and  _88
REMARK   38  A    between atoms: _88  and  _89
REMARK   39  A    between atoms: _92  and  _94
REMARK   40  A    between atoms: _94  and  _95
REMARK   41  A    between atoms: _94  and  _97
REMARK   42  A    between atoms: _97  and  _98
REMARK   43  A    between atoms: _101  and  _103
REMARK   44  A    between atoms: _103  and  _104
REMARK   45  A    between atoms: _103  and  _106
REMARK   46  A    between atoms: _109  and  _111
REMARK   47  A    between atoms: _111  and  _112
REMARK   48  A    between atoms: _111  and  _114
REMARK   49  A    between atoms: _114  and  _115
REMARK   50  A    between atoms: _115  and  _116
REMARK   51  A    between atoms: _116  and  _117
REMARK   52  A    between atoms: _117  and  _118
REMARK   53  A    between atoms: _122  and  _124
REMARK   54  A    between atoms: _124  and  _125
REMARK   55  A    between atoms: _124  and  _127
REMARK   56  A    between atoms: _127  and  _128
REMARK   57  A    between atoms: _128  and  _129
REMARK   58  A    between atoms: _131  and  _133
REMARK   59  A    between atoms: _133  and  _134
REMARK   60  A    between atoms: _133  and  _136
REMARK   61  A    between atoms: _136  and  _137
REMARK   62  A    between atoms: _140  and  _142
REMARK   63  A    between atoms: _142  and  _143
REMARK   64  A    between atoms: _145  and  _147
REMARK   65  A    between atoms: _147  and  _148
REMARK   66  A    between atoms: _150  and  _152
REMARK   67  A    between atoms: _152  and  _153
REMARK   68  A    between atoms: _152  and  _155
REMARK   69  A    between atoms: _155  and  _156
REMARK   70  A    between atoms: _159  and  _161
REMARK   71  A    between atoms: _161  and  _162
REMARK   72  A    between atoms: _164  and  _166
REMARK   73  A    between atoms: _166  and  _167
REMARK   74  A    between atoms: _169  and  _171
REMARK   75  A    between atoms: _171  and  _172
REMARK   76  A    between atoms: _171  and  _174
REMARK   77  A    between atoms: _174  and  _175
REMARK   78  A    between atoms: _181  and  _183
REMARK   79  A    between atoms: _183  and  _184
REMARK   80  A    between atoms: _183  and  _186
REMARK   81  A    between atoms: _186  and  _187
REMARK   82  A    between atoms: _190  and  _192
REMARK   83  A    between atoms: _192  and  _193
REMARK   84  A    between atoms: _192  and  _195
REMARK   85  A    between atoms: _198  and  _200
REMARK   86  A    between atoms: _200  and  _201
REMARK   87  A    between atoms: _200  and  _203
REMARK   88  A    between atoms: _203  and  _204
REMARK   89  A    between atoms: _207  and  _209
REMARK   90  A    between atoms: _209  and  _210
REMARK   91  A    between atoms: _209  and  _212
REMARK   92  A    between atoms: _212  and  _213
REMARK   93  A    between atoms: _217  and  _218
REMARK   94  A    between atoms: _223  and  _225
REMARK   95  A    between atoms: _225  and  _226
REMARK   96  A    between atoms: _225  and  _228
REMARK   97  A    between atoms: _231  and  _233
REMARK   98  A    between atoms: _233  and  _234
REMARK   99  A    between atoms: _233  and  _236
REMARK  100  A    between atoms: _236  and  _237
REMARK  101  A    between atoms: _242  and  _244
REMARK  102  A    between atoms: _244  and  _245
REMARK  103  A    between atoms: _244  and  _247
REMARK  104  A    between atoms: _247  and  _248
REMARK  105  A    between atoms: _251  and  _253
REMARK  106  A    between atoms: _253  and  _254
REMARK  107  A    between atoms: _253  and  _256
REMARK  108  A    between atoms: _256  and  _257
REMARK  109  A    between atoms: _260  and  _262
REMARK  110  A    between atoms: _262  and  _263
REMARK  111  A    between atoms: _265  and  _267
REMARK  112  A    between atoms: _267  and  _268
REMARK  113  A    between atoms: _267  and  _270
REMARK  114  A    between atoms: _270  and  _271
REMARK  115  A    between atoms: _271  and  _272
REMARK  116  A    between atoms: _272  and  _273
REMARK  117  A    between atoms: _282  and  _284
REMARK  118  A    between atoms: _284  and  _285
REMARK  119  A    between atoms: _284  and  _287
REMARK  120  A    between atoms: _287  and  _288
REMARK  121  A    between atoms: _293  and  _295
REMARK  122  A    between atoms: _295  and  _296
REMARK  123  A    between atoms: _295  and  _298
REMARK  124  A    between atoms: _298  and  _299
REMARK  125  A    between atoms: _299  and  _300
REMARK  126  A    between atoms: _300  and  _301
REMARK  127  A    between atoms: _311  and  _312
REMARK  128  A    between atoms: _317  and  _319
REMARK  129  A    between atoms: _319  and  _320
REMARK  130  A    between atoms: _319  and  _322
REMARK  131  A    between atoms: _322  and  _323
REMARK  132  A    between atoms: _326  and  _328
REMARK  133  A    between atoms: _328  and  _329
REMARK  134  A    between atoms: _328  and  _331
REMARK  135  A    between atoms: _331  and  _332
REMARK  136  A    between atoms: _335  and  _337
REMARK  137  A    between atoms: _337  and  _338
REMARK  138  A    between atoms: _337  and  _340
REMARK  139  A    between atoms: _340  and  _341
REMARK  140  A    between atoms: _344  and  _346
REMARK  141  A    between atoms: _346  and  _347
REMARK  142  A    between atoms: _346  and  _349
REMARK  143  A    between atoms: _349  and  _350
REMARK  144  A    between atoms: _353  and  _355
REMARK  145  A    between atoms: _355  and  _356
REMARK  146  A    between atoms: _355  and  _358
REMARK  147  A    between atoms: _358  and  _359
REMARK  148  A    between atoms: _362  and  _364
REMARK  149  A    between atoms: _364  and  _365
REMARK  150  A    between atoms: _367  and  _369
REMARK  151  A    between atoms: _369  and  _370
REMARK  152  A    between atoms: _373  and  _375
REMARK  153  A    between atoms: _375  and  _376
REMARK  154  A    between atoms: _375  and  _378
REMARK  155  A    between atoms: _378  and  _379
REMARK  156  A    between atoms: _382  and  _384
REMARK  157  A    between atoms: _384  and  _385
REMARK  158  A    between atoms: _384  and  _387
REMARK  159  A    between atoms: _387  and  _388
REMARK  160  A    between atoms: _391  and  _393
REMARK  161  A    between atoms: _393  and  _394
REMARK  162  A    between atoms: _393  and  _396
REMARK  163  A    between atoms: _396  and  _397
REMARK  164  A    between atoms: _400  and  _402
REMARK  165  A    between atoms: _402  and  _403
REMARK  166  A    between atoms: _402  and  _405
REMARK  167  A    between atoms: _408  and  _410
REMARK  168  A    between atoms: _410  and  _411
REMARK  169  A    between atoms: _410  and  _413
REMARK  170  A    between atoms: _413  and  _414
REMARK  171  A    between atoms: _417  and  _419
REMARK  172  A    between atoms: _419  and  _420
REMARK  173  A    between atoms: _422  and  _424
REMARK  174  A    between atoms: _424  and  _425
REMARK  175  A    between atoms: _429  and  _430
REMARK  176  A    between atoms: _429  and  _432
REMARK  177  A    between atoms: _432  and  _433
REMARK  178  A    between atoms: _436  and  _438
REMARK  179  A    between atoms: _438  and  _439
REMARK  180  A    between atoms: _441  and  _443
REMARK  181  A    between atoms: _443  and  _444
REMARK  182  A    between atoms: _446  and  _448
REMARK  183  A    between atoms: _448  and  _449
REMARK  184  A    between atoms: _448  and  _451
REMARK  185  A    between atoms: _451  and  _452
REMARK  186  A    between atoms: _458  and  _460
REMARK  187  A    between atoms: _460  and  _461
REMARK  188  A    between atoms: _460  and  _463
REMARK  189  A    between atoms: _463  and  _464
REMARK  190  A    between atoms: _467  and  _469
REMARK  191  A    between atoms: _469  and  _470
REMARK  192  A    between atoms: _469  and  _472
REMARK  193  A    between atoms: _472  and  _473
REMARK  194  A    between atoms: _476  and  _478
REMARK  195  A    between atoms: _478  and  _479
REMARK  196  A    between atoms: _478  and  _481
REMARK  197  A    between atoms: _481  and  _482
REMARK  198  A    between atoms: _486  and  _487
REMARK  199  A    between atoms: _492  and  _494
REMARK  200  A    between atoms: _494  and  _495
REMARK  201  A    between atoms: _494  and  _497
REMARK  202  A    between atoms: _500  and  _502
REMARK  203  A    between atoms: _502  and  _503
REMARK  204  A    between atoms: _502  and  _505
REMARK  205  A    between atoms: _505  and  _506
REMARK  206  A    between atoms: _511  and  _513
REMARK  207  A    between atoms: _513  and  _514
REMARK  208  A    between atoms: _513  and  _516
REMARK  209  A    between atoms: _516  and  _517
REMARK  210  A    between atoms: _520  and  _522
REMARK  211  A    between atoms: _522  and  _523
REMARK  212  A    between atoms: _525  and  _527
REMARK  213  A    between atoms: _527  and  _528
REMARK  214  A    between atoms: _527  and  _530
REMARK  215  A    between atoms: _530  and  _531
REMARK  216  A    between atoms: _531  and  _532
REMARK  217  A    between atoms: _532  and  _533
REMARK                            x       y       z     vdW  Elec       q    Type
REMARK                         _______ _______ _______ _____ _____    ______ ____
ROOT
ATOM      1  O   HOH     1      13.992  16.145  11.494  0.00  0.00    +0.000 OA
ENDROOT
TORSDOF 0
REMARK  Name = ../refined-set-2016/1d4y/1d4y_pocket.pdb
REMARK  217 active torsions:
REMARK  status: ('A' for Active; 'I' for Inactive)
REMARK    1  A    between atoms: _1  and  _3
REMARK    2  A    between atoms: _3  and  _4
REMARK    3  A    between atoms: _3  and  _6
REMARK    4  A    between atoms: _6  and  _7
REMARK    5  A    between atoms: _7  and  _8
REMARK    6  A    between atoms: _8  and  _9
REMARK    7  A    between atoms: _18  and  _20
REMARK    8  A    between atoms: _20  and  _21
REMARK    9  A    between atoms: _20  and  _23
REMARK   10  A    between atoms: _23  and  _24
REMARK   11  A    between atoms: _27  and  _29
REMARK   12  A    between atoms: _29  and  _30
REMARK   13  A    between atoms: _29  and  _32
REMARK   14  A    between atoms: _32  and  _33
REMARK   15  A    between atoms: _36  and  _38
REMARK   16  A    between atoms: _38  and  _39
REMARK   17  A    between atoms: _38  and  _41
REMARK   18  A    between atoms: _41  and  _42
REMARK   19  A    between atoms: _45  and  _47
REMARK   20  A    between atoms: _47  and  _48
REMARK   21  A    between atoms: _47  and  _50
REMARK   22  A    between atoms: _50  and  _51
REMARK   23  A    between atoms: _54  and  _56
REMARK   24  A    between atoms: _56  and  _57
REMARK   25  A    between atoms: _56  and  _59
REMARK   26  A    between atoms: _59  and  _60
REMARK   27  A    between atoms: _63  and  _65
REMARK   28  A    between atoms: _65  and  _66
REMARK   29  A    between atoms: _68  and  _70
REMARK   30  A    between atoms: _70  and  _71
REMARK   31  A    between atoms: _74  and  _76
REMARK   32  A    between atoms: _76  and  _77
REMARK   33  A    between atoms: _76  and  _79
REMARK   34  A    between atoms: _79  and  _80
REMARK   35  A    between atoms: _83  and  _85
REMARK   36  A    between atoms: _85  and  _86
REMARK   37  A    between atoms: _85  and  _88
REMARK   38  A    between atoms: _88  and  _89
REMARK   39  A    between atoms: _92  and  _94
REMARK   40  A    between atoms: _94  and  _95
REMARK   41  A    between atoms: _94  and  _97
REMARK   42  A    between atoms: _97  and  _98
REMARK   43  A    between atoms: _101  and  _103
REMARK   44  A    between atoms: _103  and  _104
REMARK   45  A    between atoms: _103  and  _106
REMARK   46  A    between atoms: _109  and  _111
REMARK   47  A    between atoms: _111  and  _112
REMARK   48  A    between atoms: _111  and  _114
REMARK   49  A    between atoms: _114  and  _115
REMARK   50  A    between atoms: _115  and  _116
REMARK   51  A    between atoms: _116  and  _117
REMARK   52  A    between atoms: _117  and  _118
REMARK   53  A    between atoms: _122  and  _124
REMARK   54  A    between atoms: _124  and  _125
REMARK   55  A    between atoms: _124  and  _127
REMARK   56  A    between atoms: _127  and  _128
REMARK   57  A    between atoms: _128  and  _129
REMARK   58  A    between atoms: _131  and  _133
REMARK   59  A    between atoms: _133  and  _134
REMARK   60  A    between atoms: _133  and  _136
REMARK   61  A    between atoms: _136  and  _137
REMARK   62  A    between atoms: _140  and  _142
REMARK   63  A    between atoms: _142  and  _143
REMARK   64  A    between atoms: _145  and  _147
REMARK   65  A    between atoms: _147  and  _148
REMARK   66  A    between atoms: _150  and  _152
REMARK   67  A    between atoms: _152  and  _153
REMARK   68  A    between atoms: _152  and  _155
REMARK   69  A    between atoms: _155  and  _156
REMARK   70  A    between atoms: _159  and  _161
REMARK   71  A    between atoms: _161  and  _162
REMARK   72  A    between atoms: _164  and  _166
REMARK   73  A    between atoms: _166  and  _167
REMARK   74  A    between atoms: _169  and  _171
REMARK   75  A    between atoms: _171  and  _172
REMARK   76  A    between atoms: _171  and  _174
REMARK   77  A    between atoms: _174  and  _175
REMARK   78  A    between atoms: _181  and  _183
REMARK   79  A    between atoms: _183  and  _184
REMARK   80  A    between atoms: _183  and  _186
REMARK   81  A    between atoms: _186  and  _187
REMARK   82  A    between atoms: _190  and  _192
REMARK   83  A    between atoms: _192  and  _193
REMARK   84  A    between atoms: _192  and  _195
REMARK   85  A    between atoms: _198  and  _200
REMARK   86  A    between atoms: _200  and  _201
REMARK   87  A    between atoms: _200  and  _203
REMARK   88  A    between atoms: _203  and  _204
REMARK   89  A    between atoms: _207  and  _209
REMARK   90  A    between atoms: _209  and  _210
REMARK   91  A    between atoms: _209  and  _212
REMARK   92  A    between atoms: _212  and  _213
REMARK   93  A    between atoms: _217  and  _218
REMARK   94  A    between atoms: _223  and  _225
REMARK   95  A    between atoms: _225  and  _226
REMARK   96  A    between atoms: _225  and  _228
REMARK   97  A    between atoms: _231  and  _233
REMARK   98  A    between atoms: _233  and  _234
REMARK   99  A    between atoms: _233  and  _236
REMARK  100  A    between atoms: _236  and  _237
REMARK  101  A    between atoms: _242  and  _244
REMARK  102  A    between atoms: _244  and  _245
REMARK  103  A    between atoms: _244  and  _247
REMARK  104  A    between atoms: _247  and  _248
REMARK  105  A    between atoms: _251  and  _253
REMARK  106  A    between atoms: _253  and  _254
REMARK  107  A    between atoms: _253  and  _256
REMARK  108  A    between atoms: _256  and  _257
REMARK  109  A    between atoms: _260  and  _262
REMARK  110  A    between atoms: _262  and  _263
REMARK  111  A    between atoms: _265  and  _267
REMARK  112  A    between atoms: _267  and  _268
REMARK  113  A    between atoms: _267  and  _270
REMARK  114  A    between atoms: _270  and  _271
REMARK  115  A    between atoms: _271  and  _272
REMARK  116  A    between atoms: _272  and  _273
REMARK  117  A    between atoms: _282  and  _284
REMARK  118  A    between atoms: _284  and  _285
REMARK  119  A    between atoms: _284  and  _287
REMARK  120  A    between atoms: _287  and  _288
REMARK  121  A    between atoms: _293  and  _295
REMARK  122  A    between atoms: _295  and  _296
REMARK  123  A    between atoms: _295  and  _298
REMARK  124  A    between atoms: _298  and  _299
REMARK  125  A    between atoms: _299  and  _300
REMARK  126  A    between atoms: _300  and  _301
REMARK  127  A    between atoms: _311  and  _312
REMARK  128  A    between atoms: _317  and  _319
REMARK  129  A    between atoms: _319  and  _320
REMARK  130  A    between atoms: _319  and  _322
REMARK  131  A    between atoms: _322  and  _323
REMARK  132  A    between atoms: _326  and  _328
REMARK  133  A    between atoms: _328  and  _329
REMARK  134  A    between atoms: _328  and  _331
REMARK  135  A    between atoms: _331  and  _332
REMARK  136  A    between atoms: _335  and  _337
REMARK  137  A    between atoms: _337  and  _338
REMARK  138  A    between atoms: _337  and  _340
REMARK  139  A    between atoms: _340  and  _341
REMARK  140  A    between atoms: _344  and  _346
REMARK  141  A    between atoms: _346  and  _347
REMARK  142  A    between atoms: _346  and  _349
REMARK  143  A    between atoms: _349  and  _350
REMARK  144  A    between atoms: _353  and  _355
REMARK  145  A    between atoms: _355  and  _356
REMARK  146  A    between atoms: _355  and  _358
REMARK  147  A    between atoms: _358  and  _359
REMARK  148  A    between atoms: _362  and  _364
REMARK  149  A    between atoms: _364  and  _365
REMARK  150  A    between atoms: _367  and  _369
REMARK  151  A    between atoms: _369  and  _370
REMARK  152  A    between atoms: _373  and  _375
REMARK  153  A    between atoms: _375  and  _376
REMARK  154  A    between atoms: _375  and  _378
REMARK  155  A    between atoms: _378  and  _379
REMARK  156  A    between atoms: _382  and  _384
REMARK  157  A    between atoms: _384  and  _385
REMARK  158  A    between atoms: _384  and  _387
REMARK  159  A    between atoms: _387  and  _388
REMARK  160  A    between atoms: _391  and  _393
REMARK  161  A    between atoms: _393  and  _394
REMARK  162  A    between atoms: _393  and  _396
REMARK  163  A    between atoms: _396  and  _397
REMARK  164  A    between atoms: _400  and  _402
REMARK  165  A    between atoms: _402  and  _403
REMARK  166  A    between atoms: _402  and  _405
REMARK  167  A    between atoms: _408  and  _410
REMARK  168  A    between atoms: _410  and  _411
REMARK  169  A    between atoms: _410  and  _413
REMARK  170  A    between atoms: _413  and  _414
REMARK  171  A    between atoms: _417  and  _419
REMARK  172  A    between atoms: _419  and  _420
REMARK  173  A    between atoms: _422  and  _424
REMARK  174  A    between atoms: _424  and  _425
REMARK  175  A    between atoms: _429  and  _430
REMARK  176  A    between atoms: _429  and  _432
REMARK  177  A    between atoms: _432  and  _433
REMARK  178  A    between atoms: _436  and  _438
REMARK  179  A    between atoms: _438  and  _439
REMARK  180  A    between atoms: _441  and  _443
REMARK  181  A    between atoms: _443  and  _444
REMARK  182  A    between atoms: _446  and  _448
REMARK  183  A    between atoms: _448  and  _449
REMARK  184  A    between atoms: _448  and  _451
REMARK  185  A    between atoms: _451  and  _452
REMARK  186  A    between atoms: _458  and  _460
REMARK  187  A    between atoms: _460  and  _461
REMARK  188  A    between atoms: _460  and  _463
REMARK  189  A    between atoms: _463  and  _464
REMARK  190  A    between atoms: _467  and  _469
REMARK  191  A    between atoms: _469  and  _470
REMARK  192  A    between atoms: _469  and  _472
REMARK  193  A    between atoms: _472  and  _473
REMARK  194  A    between atoms: _476  and  _478
REMARK  195  A    between atoms: _478  and  _479
REMARK  196  A    between atoms: _478  and  _481
REMARK  197  A    between atoms: _481  and  _482
REMARK  198  A    between atoms: _486  and  _487
REMARK  199  A    between atoms: _492  and  _494
REMARK  200  A    between atoms: _494  and  _495
REMARK  201  A    between atoms: _494  and  _497
REMARK  202  A    between atoms: _500  and  _502
REMARK  203  A    between atoms: _502  and  _503
REMARK  204  A    between atoms: _502  and  _505
REMARK  205  A    between atoms: _505  and  _506
REMARK  206  A    between atoms: _511  and  _513
REMARK  207  A    between atoms: _513  and  _514
REMARK  208  A    between atoms: _513  and  _516
REMARK  209  A    between atoms: _516  and  _517
REMARK  210  A    between atoms: _520  and  _522
REMARK  211  A    between atoms: _522  and  _523
REMARK  212  A    between atoms: _525  and  _527
REMARK  213  A    between atoms: _527  and  _528
REMARK  214  A    between atoms: _527  and  _530
REMARK  215  A    between atoms: _530  and  _531
REMARK  216  A    between atoms: _531  and  _532
REMARK  217  A    between atoms: _532  and  _533
REMARK                            x       y       z     vdW  Elec       q    Type
REMARK                         _______ _______ _______ _____ _____    ______ ____
ROOT
ATOM      1  O   HOH     1       8.025  24.006  -6.732  0.00  0.00    +0.000 OA
ENDROOT
TORSDOF 0
REMARK  Name = ../refined-set-2016/1d4y/1d4y_pocket.pdb
REMARK  217 active torsions:
REMARK  status: ('A' for Active; 'I' for Inactive)
REMARK    1  A    between atoms: _1  and  _3
REMARK    2  A    between atoms: _3  and  _4
REMARK    3  A    between atoms: _3  and  _6
REMARK    4  A    between atoms: _6  and  _7
REMARK    5  A    between atoms: _7  and  _8
REMARK    6  A    between atoms: _8  and  _9
REMARK    7  A    between atoms: _18  and  _20
REMARK    8  A    between atoms: _20  and  _21
REMARK    9  A    between atoms: _20  and  _23
REMARK   10  A    between atoms: _23  and  _24
REMARK   11  A    between atoms: _27  and  _29
REMARK   12  A    between atoms: _29  and  _30
REMARK   13  A    between atoms: _29  and  _32
REMARK   14  A    between atoms: _32  and  _33
REMARK   15  A    between atoms: _36  and  _38
REMARK   16  A    between atoms: _38  and  _39
REMARK   17  A    between atoms: _38  and  _41
REMARK   18  A    between atoms: _41  and  _42
REMARK   19  A    between atoms: _45  and  _47
REMARK   20  A    between atoms: _47  and  _48
REMARK   21  A    between atoms: _47  and  _50
REMARK   22  A    between atoms: _50  and  _51
REMARK   23  A    between atoms: _54  and  _56
REMARK   24  A    between atoms: _56  and  _57
REMARK   25  A    between atoms: _56  and  _59
REMARK   26  A    between atoms: _59  and  _60
REMARK   27  A    between atoms: _63  and  _65
REMARK   28  A    between atoms: _65  and  _66
REMARK   29  A    between atoms: _68  and  _70
REMARK   30  A    between atoms: _70  and  _71
REMARK   31  A    between atoms: _74  and  _76
REMARK   32  A    between atoms: _76  and  _77
REMARK   33  A    between atoms: _76  and  _79
REMARK   34  A    between atoms: _79  and  _80
REMARK   35  A    between atoms: _83  and  _85
REMARK   36  A    between atoms: _85  and  _86
REMARK   37  A    between atoms: _85  and  _88
REMARK   38  A    between atoms: _88  and  _89
REMARK   39  A    between atoms: _92  and  _94
REMARK   40  A    between atoms: _94  and  _95
REMARK   41  A    between atoms: _94  and  _97
REMARK   42  A    between atoms: _97  and  _98
REMARK   43  A    between atoms: _101  and  _103
REMARK   44  A    between atoms: _103  and  _104
REMARK   45  A    between atoms: _103  and  _106
REMARK   46  A    between atoms: _109  and  _111
REMARK   47  A    between atoms: _111  and  _112
REMARK   48  A    between atoms: _111  and  _114
REMARK   49  A    between atoms: _114  and  _115
REMARK   50  A    between atoms: _115  and  _116
REMARK   51  A    between atoms: _116  and  _117
REMARK   52  A    between atoms: _117  and  _118
REMARK   53  A    between atoms: _122  and  _124
REMARK   54  A    between atoms: _124  and  _125
REMARK   55  A    between atoms: _124  and  _127
REMARK   56  A    between atoms: _127  and  _128
REMARK   57  A    between atoms: _128  and  _129
REMARK   58  A    between atoms: _131  and  _133
REMARK   59  A    between atoms: _133  and  _134
REMARK   60  A    between atoms: _133  and  _136
REMARK   61  A    between atoms: _136  and  _137
REMARK   62  A    between atoms: _140  and  _142
REMARK   63  A    between atoms: _142  and  _143
REMARK   64  A    between atoms: _145  and  _147
REMARK   65  A    between atoms: _147  and  _148
REMARK   66  A    between atoms: _150  and  _152
REMARK   67  A    between atoms: _152  and  _153
REMARK   68  A    between atoms: _152  and  _155
REMARK   69  A    between atoms: _155  and  _156
REMARK   70  A    between atoms: _159  and  _161
REMARK   71  A    between atoms: _161  and  _162
REMARK   72  A    between atoms: _164  and  _166
REMARK   73  A    between atoms: _166  and  _167
REMARK   74  A    between atoms: _169  and  _171
REMARK   75  A    between atoms: _171  and  _172
REMARK   76  A    between atoms: _171  and  _174
REMARK   77  A    between atoms: _174  and  _175
REMARK   78  A    between atoms: _181  and  _183
REMARK   79  A    between atoms: _183  and  _184
REMARK   80  A    between atoms: _183  and  _186
REMARK   81  A    between atoms: _186  and  _187
REMARK   82  A    between atoms: _190  and  _192
REMARK   83  A    between atoms: _192  and  _193
REMARK   84  A    between atoms: _192  and  _195
REMARK   85  A    between atoms: _198  and  _200
REMARK   86  A    between atoms: _200  and  _201
REMARK   87  A    between atoms: _200  and  _203
REMARK   88  A    between atoms: _203  and  _204
REMARK   89  A    between atoms: _207  and  _209
REMARK   90  A    between atoms: _209  and  _210
REMARK   91  A    between atoms: _209  and  _212
REMARK   92  A    between atoms: _212  and  _213
REMARK   93  A    between atoms: _217  and  _218
REMARK   94  A    between atoms: _223  and  _225
REMARK   95  A    between atoms: _225  and  _226
REMARK   96  A    between atoms: _225  and  _228
REMARK   97  A    between atoms: _231  and  _233
REMARK   98  A    between atoms: _233  and  _234
REMARK   99  A    between atoms: _233  and  _236
REMARK  100  A    between atoms: _236  and  _237
REMARK  101  A    between atoms: _242  and  _244
REMARK  102  A    between atoms: _244  and  _245
REMARK  103  A    between atoms: _244  and  _247
REMARK  104  A    between atoms: _247  and  _248
REMARK  105  A    between atoms: _251  and  _253
REMARK  106  A    between atoms: _253  and  _254
REMARK  107  A    between atoms: _253  and  _256
REMARK  108  A    between atoms: _256  and  _257
REMARK  109  A    between atoms: _260  and  _262
REMARK  110  A    between atoms: _262  and  _263
REMARK  111  A    between atoms: _265  and  _267
REMARK  112  A    between atoms: _267  and  _268
REMARK  113  A    between atoms: _267  and  _270
REMARK  114  A    between atoms: _270  and  _271
REMARK  115  A    between atoms: _271  and  _272
REMARK  116  A    between atoms: _272  and  _273
REMARK  117  A    between atoms: _282  and  _284
REMARK  118  A    between atoms: _284  and  _285
REMARK  119  A    between atoms: _284  and  _287
REMARK  120  A    between atoms: _287  and  _288
REMARK  121  A    between atoms: _293  and  _295
REMARK  122  A    between atoms: _295  and  _296
REMARK  123  A    between atoms: _295  and  _298
REMARK  124  A    between atoms: _298  and  _299
REMARK  125  A    between atoms: _299  and  _300
REMARK  126  A    between atoms: _300  and  _301
REMARK  127  A    between atoms: _311  and  _312
REMARK  128  A    between atoms: _317  and  _319
REMARK  129  A    between atoms: _319  and  _320
REMARK  130  A    between atoms: _319  and  _322
REMARK  131  A    between atoms: _322  and  _323
REMARK  132  A    between atoms: _326  and  _328
REMARK  133  A    between atoms: _328  and  _329
REMARK  134  A    between atoms: _328  and  _331
REMARK  135  A    between atoms: _331  and  _332
REMARK  136  A    between atoms: _335  and  _337
REMARK  137  A    between atoms: _337  and  _338
REMARK  138  A    between atoms: _337  and  _340
REMARK  139  A    between atoms: _340  and  _341
REMARK  140  A    between atoms: _344  and  _346
REMARK  141  A    between atoms: _346  and  _347
REMARK  142  A    between atoms: _346  and  _349
REMARK  143  A    between atoms: _349  and  _350
REMARK  144  A    between atoms: _353  and  _355
REMARK  145  A    between atoms: _355  and  _356
REMARK  146  A    between atoms: _355  and  _358
REMARK  147  A    between atoms: _358  and  _359
REMARK  148  A    between atoms: _362  and  _364
REMARK  149  A    between atoms: _364  and  _365
REMARK  150  A    between atoms: _367  and  _369
REMARK  151  A    between atoms: _369  and  _370
REMARK  152  A    between atoms: _373  and  _375
REMARK  153  A    between atoms: _375  and  _376
REMARK  154  A    between atoms: _375  and  _378
REMARK  155  A    between atoms: _378  and  _379
REMARK  156  A    between atoms: _382  and  _384
REMARK  157  A    between atoms: _384  and  _385
REMARK  158  A    between atoms: _384  and  _387
REMARK  159  A    between atoms: _387  and  _388
REMARK  160  A    between atoms: _391  and  _393
REMARK  161  A    between atoms: _393  and  _394
REMARK  162  A    between atoms: _393  and  _396
REMARK  163  A    between atoms: _396  and  _397
REMARK  164  A    between atoms: _400  and  _402
REMARK  165  A    between atoms: _402  and  _403
REMARK  166  A    between atoms: _402  and  _405
REMARK  167  A    between atoms: _408  and  _410
REMARK  168  A    between atoms: _410  and  _411
REMARK  169  A    between atoms: _410  and  _413
REMARK  170  A    between atoms: _413  and  _414
REMARK  171  A    between atoms: _417  and  _419
REMARK  172  A    between atoms: _419  and  _420
REMARK  173  A    between atoms: _422  and  _424
REMARK  174  A    between atoms: _424  and  _425
REMARK  175  A    between atoms: _429  and  _430
REMARK  176  A    between atoms: _429  and  _432
REMARK  177  A    between atoms: _432  and  _433
REMARK  178  A    between atoms: _436  and  _438
REMARK  179  A    between atoms: _438  and  _439
REMARK  180  A    between atoms: _441  and  _443
REMARK  181  A    between atoms: _443  and  _444
REMARK  182  A    between atoms: _446  and  _448
REMARK  183  A    between atoms: _448  and  _449
REMARK  184  A    between atoms: _448  and  _451
REMARK  185  A    between atoms: _451  and  _452
REMARK  186  A    between atoms: _458  and  _460
REMARK  187  A    between atoms: _460  and  _461
REMARK  188  A    between atoms: _460  and  _463
REMARK  189  A    between atoms: _463  and  _464
REMARK  190  A    between atoms: _467  and  _469
REMARK  191  A    between atoms: _469  and  _470
REMARK  192  A    between atoms: _469  and  _472
REMARK  193  A    between atoms: _472  and  _473
REMARK  194  A    between atoms: _476  and  _478
REMARK  195  A    between atoms: _478  and  _479
REMARK  196  A    between atoms: _478  and  _481
REMARK  197  A    between atoms: _481  and  _482
REMARK  198  A    between atoms: _486  and  _487
REMARK  199  A    between atoms: _492  and  _494
REMARK  200  A    between atoms: _494  and  _495
REMARK  201  A    between atoms: _494  and  _497
REMARK  202  A    between atoms: _500  and  _502
REMARK  203  A    between atoms: _502  and  _503
REMARK  204  A    between atoms: _502  and  _505
REMARK  205  A    between atoms: _505  and  _506
REMARK  206  A    between atoms: _511  and  _513
REMARK  207  A    between atoms: _513  and  _514
REMARK  208  A    between atoms: _513  and  _516
REMARK  209  A    between atoms: _516  and  _517
REMARK  210  A    between atoms: _520  and  _522
REMARK  211  A    between atoms: _522  and  _523
REMARK  212  A    between atoms: _525  and  _527
REMARK  213  A    between atoms: _527  and  _528
REMARK  214  A    between atoms: _527  and  _530
REMARK  215  A    between atoms: _530  and  _531
REMARK  216  A    between atoms: _531  and  _532
REMARK  217  A    between atoms: _532  and  _533
REMARK                            x       y       z     vdW  Elec       q    Type
REMARK                         _______ _______ _______ _____ _____    ______ ____
ROOT
ATOM      1  O   HOH     1      19.403  19.396   5.585  0.00  0.00    +0.000 OA
ENDROOT
TORSDOF 0
REMARK  Name = ../refined-set-2016/1d4y/1d4y_pocket.pdb
REMARK  217 active torsions:
REMARK  status: ('A' for Active; 'I' for Inactive)
REMARK    1  A    between atoms: _1  and  _3
REMARK    2  A    between atoms: _3  and  _4
REMARK    3  A    between atoms: _3  and  _6
REMARK    4  A    between atoms: _6  and  _7
REMARK    5  A    between atoms: _7  and  _8
REMARK    6  A    between atoms: _8  and  _9
REMARK    7  A    between atoms: _18  and  _20
REMARK    8  A    between atoms: _20  and  _21
REMARK    9  A    between atoms: _20  and  _23
REMARK   10  A    between atoms: _23  and  _24
REMARK   11  A    between atoms: _27  and  _29
REMARK   12  A    between atoms: _29  and  _30
REMARK   13  A    between atoms: _29  and  _32
REMARK   14  A    between atoms: _32  and  _33
REMARK   15  A    between atoms: _36  and  _38
REMARK   16  A    between atoms: _38  and  _39
REMARK   17  A    between atoms: _38  and  _41
REMARK   18  A    between atoms: _41  and  _42
REMARK   19  A    between atoms: _45  and  _47
REMARK   20  A    between atoms: _47  and  _48
REMARK   21  A    between atoms: _47  and  _50
REMARK   22  A    between atoms: _50  and  _51
REMARK   23  A    between atoms: _54  and  _56
REMARK   24  A    between atoms: _56  and  _57
REMARK   25  A    between atoms: _56  and  _59
REMARK   26  A    between atoms: _59  and  _60
REMARK   27  A    between atoms: _63  and  _65
REMARK   28  A    between atoms: _65  and  _66
REMARK   29  A    between atoms: _68  and  _70
REMARK   30  A    between atoms: _70  and  _71
REMARK   31  A    between atoms: _74  and  _76
REMARK   32  A    between atoms: _76  and  _77
REMARK   33  A    between atoms: _76  and  _79
REMARK   34  A    between atoms: _79  and  _80
REMARK   35  A    between atoms: _83  and  _85
REMARK   36  A    between atoms: _85  and  _86
REMARK   37  A    between atoms: _85  and  _88
REMARK   38  A    between atoms: _88  and  _89
REMARK   39  A    between atoms: _92  and  _94
REMARK   40  A    between atoms: _94  and  _95
REMARK   41  A    between atoms: _94  and  _97
REMARK   42  A    between atoms: _97  and  _98
REMARK   43  A    between atoms: _101  and  _103
REMARK   44  A    between atoms: _103  and  _104
REMARK   45  A    between atoms: _103  and  _106
REMARK   46  A    between atoms: _109  and  _111
REMARK   47  A    between atoms: _111  and  _112
REMARK   48  A    between atoms: _111  and  _114
REMARK   49  A    between atoms: _114  and  _115
REMARK   50  A    between atoms: _115  and  _116
REMARK   51  A    between atoms: _116  and  _117
REMARK   52  A    between atoms: _117  and  _118
REMARK   53  A    between atoms: _122  and  _124
REMARK   54  A    between atoms: _124  and  _125
REMARK   55  A    between atoms: _124  and  _127
REMARK   56  A    between atoms: _127  and  _128
REMARK   57  A    between atoms: _128  and  _129
REMARK   58  A    between atoms: _131  and  _133
REMARK   59  A    between atoms: _133  and  _134
REMARK   60  A    between atoms: _133  and  _136
REMARK   61  A    between atoms: _136  and  _137
REMARK   62  A    between atoms: _140  and  _142
REMARK   63  A    between atoms: _142  and  _143
REMARK   64  A    between atoms: _145  and  _147
REMARK   65  A    between atoms: _147  and  _148
REMARK   66  A    between atoms: _150  and  _152
REMARK   67  A    between atoms: _152  and  _153
REMARK   68  A    between atoms: _152  and  _155
REMARK   69  A    between atoms: _155  and  _156
REMARK   70  A    between atoms: _159  and  _161
REMARK   71  A    between atoms: _161  and  _162
REMARK   72  A    between atoms: _164  and  _166
REMARK   73  A    between atoms: _166  and  _167
REMARK   74  A    between atoms: _169  and  _171
REMARK   75  A    between atoms: _171  and  _172
REMARK   76  A    between atoms: _171  and  _174
REMARK   77  A    between atoms: _174  and  _175
REMARK   78  A    between atoms: _181  and  _183
REMARK   79  A    between atoms: _183  and  _184
REMARK   80  A    between atoms: _183  and  _186
REMARK   81  A    between atoms: _186  and  _187
REMARK   82  A    between atoms: _190  and  _192
REMARK   83  A    between atoms: _192  and  _193
REMARK   84  A    between atoms: _192  and  _195
REMARK   85  A    between atoms: _198  and  _200
REMARK   86  A    between atoms: _200  and  _201
REMARK   87  A    between atoms: _200  and  _203
REMARK   88  A    between atoms: _203  and  _204
REMARK   89  A    between atoms: _207  and  _209
REMARK   90  A    between atoms: _209  and  _210
REMARK   91  A    between atoms: _209  and  _212
REMARK   92  A    between atoms: _212  and  _213
REMARK   93  A    between atoms: _217  and  _218
REMARK   94  A    between atoms: _223  and  _225
REMARK   95  A    between atoms: _225  and  _226
REMARK   96  A    between atoms: _225  and  _228
REMARK   97  A    between atoms: _231  and  _233
REMARK   98  A    between atoms: _233  and  _234
REMARK   99  A    between atoms: _233  and  _236
REMARK  100  A    between atoms: _236  and  _237
REMARK  101  A    between atoms: _242  and  _244
REMARK  102  A    between atoms: _244  and  _245
REMARK  103  A    between atoms: _244  and  _247
REMARK  104  A    between atoms: _247  and  _248
REMARK  105  A    between atoms: _251  and  _253
REMARK  106  A    between atoms: _253  and  _254
REMARK  107  A    between atoms: _253  and  _256
REMARK  108  A    between atoms: _256  and  _257
REMARK  109  A    between atoms: _260  and  _262
REMARK  110  A    between atoms: _262  and  _263
REMARK  111  A    between atoms: _265  and  _267
REMARK  112  A    between atoms: _267  and  _268
REMARK  113  A    between atoms: _267  and  _270
REMARK  114  A    between atoms: _270  and  _271
REMARK  115  A    between atoms: _271  and  _272
REMARK  116  A    between atoms: _272  and  _273
REMARK  117  A    between atoms: _282  and  _284
REMARK  118  A    between atoms: _284  and  _285
REMARK  119  A    between atoms: _284  and  _287
REMARK  120  A    between atoms: _287  and  _288
REMARK  121  A    between atoms: _293  and  _295
REMARK  122  A    between atoms: _295  and  _296
REMARK  123  A    between atoms: _295  and  _298
REMARK  124  A    between atoms: _298  and  _299
REMARK  125  A    between atoms: _299  and  _300
REMARK  126  A    between atoms: _300  and  _301
REMARK  127  A    between atoms: _311  and  _312
REMARK  128  A    between atoms: _317  and  _319
REMARK  129  A    between atoms: _319  and  _320
REMARK  130  A    between atoms: _319  and  _322
REMARK  131  A    between atoms: _322  and  _323
REMARK  132  A    between atoms: _326  and  _328
REMARK  133  A    between atoms: _328  and  _329
REMARK  134  A    between atoms: _328  and  _331
REMARK  135  A    between atoms: _331  and  _332
REMARK  136  A    between atoms: _335  and  _337
REMARK  137  A    between atoms: _337  and  _338
REMARK  138  A    between atoms: _337  and  _340
REMARK  139  A    between atoms: _340  and  _341
REMARK  140  A    between atoms: _344  and  _346
REMARK  141  A    between atoms: _346  and  _347
REMARK  142  A    between atoms: _346  and  _349
REMARK  143  A    between atoms: _349  and  _350
REMARK  144  A    between atoms: _353  and  _355
REMARK  145  A    between atoms: _355  and  _356
REMARK  146  A    between atoms: _355  and  _358
REMARK  147  A    between atoms: _358  and  _359
REMARK  148  A    between atoms: _362  and  _364
REMARK  149  A    between atoms: _364  and  _365
REMARK  150  A    between atoms: _367  and  _369
REMARK  151  A    between atoms: _369  and  _370
REMARK  152  A    between atoms: _373  and  _375
REMARK  153  A    between atoms: _375  and  _376
REMARK  154  A    between atoms: _375  and  _378
REMARK  155  A    between atoms: _378  and  _379
REMARK  156  A    between atoms: _382  and  _384
REMARK  157  A    between atoms: _384  and  _385
REMARK  158  A    between atoms: _384  and  _387
REMARK  159  A    between atoms: _387  and  _388
REMARK  160  A    between atoms: _391  and  _393
REMARK  161  A    between atoms: _393  and  _394
REMARK  162  A    between atoms: _393  and  _396
REMARK  163  A    between atoms: _396  and  _397
REMARK  164  A    between atoms: _400  and  _402
REMARK  165  A    between atoms: _402  and  _403
REMARK  166  A    between atoms: _402  and  _405
REMARK  167  A    between atoms: _408  and  _410
REMARK  168  A    between atoms: _410  and  _411
REMARK  169  A    between atoms: _410  and  _413
REMARK  170  A    between atoms: _413  and  _414
REMARK  171  A    between atoms: _417  and  _419
REMARK  172  A    between atoms: _419  and  _420
REMARK  173  A    between atoms: _422  and  _424
REMARK  174  A    between atoms: _424  and  _425
REMARK  175  A    between atoms: _429  and  _430
REMARK  176  A    between atoms: _429  and  _432
REMARK  177  A    between atoms: _432  and  _433
REMARK  178  A    between atoms: _436  and  _438
REMARK  179  A    between atoms: _438  and  _439
REMARK  180  A    between atoms: _441  and  _443
REMARK  181  A    between atoms: _443  and  _444
REMARK  182  A    between atoms: _446  and  _448
REMARK  183  A    between atoms: _448  and  _449
REMARK  184  A    between atoms: _448  and  _451
REMARK  185  A    between atoms: _451  and  _452
REMARK  186  A    between atoms: _458  and  _460
REMARK  187  A    between atoms: _460  and  _461
REMARK  188  A    between atoms: _460  and  _463
REMARK  189  A    between atoms: _463  and  _464
REMARK  190  A    between atoms: _467  and  _469
REMARK  191  A    between atoms: _469  and  _470
REMARK  192  A    between atoms: _469  and  _472
REMARK  193  A    between atoms: _472  and  _473
REMARK  194  A    between atoms: _476  and  _478
REMARK  195  A    between atoms: _478  and  _479
REMARK  196  A    between atoms: _478  and  _481
REMARK  197  A    between atoms: _481  and  _482
REMARK  198  A    between atoms: _486  and  _487
REMARK  199  A    between atoms: _492  and  _494
REMARK  200  A    between atoms: _494  and  _495
REMARK  201  A    between atoms: _494  and  _497
REMARK  202  A    between atoms: _500  and  _502
REMARK  203  A    between atoms: _502  and  _503
REMARK  204  A    between atoms: _502  and  _505
REMARK  205  A    between atoms: _505  and  _506
REMARK  206  A    between atoms: _511  and  _513
REMARK  207  A    between atoms: _513  and  _514
REMARK  208  A    between atoms: _513  and  _516
REMARK  209  A    between atoms: _516  and  _517
REMARK  210  A    between atoms: _520  and  _522
REMARK  211  A    between atoms: _522  and  _523
REMARK  212  A    between atoms: _525  and  _527
REMARK  213  A    between atoms: _527  and  _528
REMARK  214  A    between atoms: _527  and  _530
REMARK  215  A    between atoms: _530  and  _531
REMARK  216  A    between atoms: _531  and  _532
REMARK  217  A    between atoms: _532  and  _533
REMARK                            x       y       z     vdW  Elec       q    Type
REMARK                         _______ _______ _______ _____ _____    ______ ____
ROOT
ATOM      1  O   HOH     1      18.134  14.534   7.013  0.00  0.00    +0.000 OA
ENDROOT
TORSDOF 0
REMARK  Name = ../refined-set-2016/1d4y/1d4y_pocket.pdb
REMARK  217 active torsions:
REMARK  status: ('A' for Active; 'I' for Inactive)
REMARK    1  A    between atoms: _1  and  _3
REMARK    2  A    between atoms: _3  and  _4
REMARK    3  A    between atoms: _3  and  _6
REMARK    4  A    between atoms: _6  and  _7
REMARK    5  A    between atoms: _7  and  _8
REMARK    6  A    between atoms: _8  and  _9
REMARK    7  A    between atoms: _18  and  _20
REMARK    8  A    between atoms: _20  and  _21
REMARK    9  A    between atoms: _20  and  _23
REMARK   10  A    between atoms: _23  and  _24
REMARK   11  A    between atoms: _27  and  _29
REMARK   12  A    between atoms: _29  and  _30
REMARK   13  A    between atoms: _29  and  _32
REMARK   14  A    between atoms: _32  and  _33
REMARK   15  A    between atoms: _36  and  _38
REMARK   16  A    between atoms: _38  and  _39
REMARK   17  A    between atoms: _38  and  _41
REMARK   18  A    between atoms: _41  and  _42
REMARK   19  A    between atoms: _45  and  _47
REMARK   20  A    between atoms: _47  and  _48
REMARK   21  A    between atoms: _47  and  _50
REMARK   22  A    between atoms: _50  and  _51
REMARK   23  A    between atoms: _54  and  _56
REMARK   24  A    between atoms: _56  and  _57
REMARK   25  A    between atoms: _56  and  _59
REMARK   26  A    between atoms: _59  and  _60
REMARK   27  A    between atoms: _63  and  _65
REMARK   28  A    between atoms: _65  and  _66
REMARK   29  A    between atoms: _68  and  _70
REMARK   30  A    between atoms: _70  and  _71
REMARK   31  A    between atoms: _74  and  _76
REMARK   32  A    between atoms: _76  and  _77
REMARK   33  A    between atoms: _76  and  _79
REMARK   34  A    between atoms: _79  and  _80
REMARK   35  A    between atoms: _83  and  _85
REMARK   36  A    between atoms: _85  and  _86
REMARK   37  A    between atoms: _85  and  _88
REMARK   38  A    between atoms: _88  and  _89
REMARK   39  A    between atoms: _92  and  _94
REMARK   40  A    between atoms: _94  and  _95
REMARK   41  A    between atoms: _94  and  _97
REMARK   42  A    between atoms: _97  and  _98
REMARK   43  A    between atoms: _101  and  _103
REMARK   44  A    between atoms: _103  and  _104
REMARK   45  A    between atoms: _103  and  _106
REMARK   46  A    between atoms: _109  and  _111
REMARK   47  A    between atoms: _111  and  _112
REMARK   48  A    between atoms: _111  and  _114
REMARK   49  A    between atoms: _114  and  _115
REMARK   50  A    between atoms: _115  and  _116
REMARK   51  A    between atoms: _116  and  _117
REMARK   52  A    between atoms: _117  and  _118
REMARK   53  A    between atoms: _122  and  _124
REMARK   54  A    between atoms: _124  and  _125
REMARK   55  A    between atoms: _124  and  _127
REMARK   56  A    between atoms: _127  and  _128
REMARK   57  A    between atoms: _128  and  _129
REMARK   58  A    between atoms: _131  and  _133
REMARK   59  A    between atoms: _133  and  _134
REMARK   60  A    between atoms: _133  and  _136
REMARK   61  A    between atoms: _136  and  _137
REMARK   62  A    between atoms: _140  and  _142
REMARK   63  A    between atoms: _142  and  _143
REMARK   64  A    between atoms: _145  and  _147
REMARK   65  A    between atoms: _147  and  _148
REMARK   66  A    between atoms: _150  and  _152
REMARK   67  A    between atoms: _152  and  _153
REMARK   68  A    between atoms: _152  and  _155
REMARK   69  A    between atoms: _155  and  _156
REMARK   70  A    between atoms: _159  and  _161
REMARK   71  A    between atoms: _161  and  _162
REMARK   72  A    between atoms: _164  and  _166
REMARK   73  A    between atoms: _166  and  _167
REMARK   74  A    between atoms: _169  and  _171
REMARK   75  A    between atoms: _171  and  _172
REMARK   76  A    between atoms: _171  and  _174
REMARK   77  A    between atoms: _174  and  _175
REMARK   78  A    between atoms: _181  and  _183
REMARK   79  A    between atoms: _183  and  _184
REMARK   80  A    between atoms: _183  and  _186
REMARK   81  A    between atoms: _186  and  _187
REMARK   82  A    between atoms: _190  and  _192
REMARK   83  A    between atoms: _192  and  _193
REMARK   84  A    between atoms: _192  and  _195
REMARK   85  A    between atoms: _198  and  _200
REMARK   86  A    between atoms: _200  and  _201
REMARK   87  A    between atoms: _200  and  _203
REMARK   88  A    between atoms: _203  and  _204
REMARK   89  A    between atoms: _207  and  _209
REMARK   90  A    between atoms: _209  and  _210
REMARK   91  A    between atoms: _209  and  _212
REMARK   92  A    between atoms: _212  and  _213
REMARK   93  A    between atoms: _217  and  _218
REMARK   94  A    between atoms: _223  and  _225
REMARK   95  A    between atoms: _225  and  _226
REMARK   96  A    between atoms: _225  and  _228
REMARK   97  A    between atoms: _231  and  _233
REMARK   98  A    between atoms: _233  and  _234
REMARK   99  A    between atoms: _233  and  _236
REMARK  100  A    between atoms: _236  and  _237
REMARK  101  A    between atoms: _242  and  _244
REMARK  102  A    between atoms: _244  and  _245
REMARK  103  A    between atoms: _244  and  _247
REMARK  104  A    between atoms: _247  and  _248
REMARK  105  A    between atoms: _251  and  _253
REMARK  106  A    between atoms: _253  and  _254
REMARK  107  A    between atoms: _253  and  _256
REMARK  108  A    between atoms: _256  and  _257
REMARK  109  A    between atoms: _260  and  _262
REMARK  110  A    between atoms: _262  and  _263
REMARK  111  A    between atoms: _265  and  _267
REMARK  112  A    between atoms: _267  and  _268
REMARK  113  A    between atoms: _267  and  _270
REMARK  114  A    between atoms: _270  and  _271
REMARK  115  A    between atoms: _271  and  _272
REMARK  116  A    between atoms: _272  and  _273
REMARK  117  A    between atoms: _282  and  _284
REMARK  118  A    between atoms: _284  and  _285
REMARK  119  A    between atoms: _284  and  _287
REMARK  120  A    between atoms: _287  and  _288
REMARK  121  A    between atoms: _293  and  _295
REMARK  122  A    between atoms: _295  and  _296
REMARK  123  A    between atoms: _295  and  _298
REMARK  124  A    between atoms: _298  and  _299
REMARK  125  A    between atoms: _299  and  _300
REMARK  126  A    between atoms: _300  and  _301
REMARK  127  A    between atoms: _311  and  _312
REMARK  128  A    between atoms: _317  and  _319
REMARK  129  A    between atoms: _319  and  _320
REMARK  130  A    between atoms: _319  and  _322
REMARK  131  A    between atoms: _322  and  _323
REMARK  132  A    between atoms: _326  and  _328
REMARK  133  A    between atoms: _328  and  _329
REMARK  134  A    between atoms: _328  and  _331
REMARK  135  A    between atoms: _331  and  _332
REMARK  136  A    between atoms: _335  and  _337
REMARK  137  A    between atoms: _337  and  _338
REMARK  138  A    between atoms: _337  and  _340
REMARK  139  A    between atoms: _340  and  _341
REMARK  140  A    between atoms: _344  and  _346
REMARK  141  A    between atoms: _346  and  _347
REMARK  142  A    between atoms: _346  and  _349
REMARK  143  A    between atoms: _349  and  _350
REMARK  144  A    between atoms: _353  and  _355
REMARK  145  A    between atoms: _355  and  _356
REMARK  146  A    between atoms: _355  and  _358
REMARK  147  A    between atoms: _358  and  _359
REMARK  148  A    between atoms: _362  and  _364
REMARK  149  A    between atoms: _364  and  _365
REMARK  150  A    between atoms: _367  and  _369
REMARK  151  A    between atoms: _369  and  _370
REMARK  152  A    between atoms: _373  and  _375
REMARK  153  A    between atoms: _375  and  _376
REMARK  154  A    between atoms: _375  and  _378
REMARK  155  A    between atoms: _378  and  _379
REMARK  156  A    between atoms: _382  and  _384
REMARK  157  A    between atoms: _384  and  _385
REMARK  158  A    between atoms: _384  and  _387
REMARK  159  A    between atoms: _387  and  _388
REMARK  160  A    between atoms: _391  and  _393
REMARK  161  A    between atoms: _393  and  _394
REMARK  162  A    between atoms: _393  and  _396
REMARK  163  A    between atoms: _396  and  _397
REMARK  164  A    between atoms: _400  and  _402
REMARK  165  A    between atoms: _402  and  _403
REMARK  166  A    between atoms: _402  and  _405
REMARK  167  A    between atoms: _408  and  _410
REMARK  168  A    between atoms: _410  and  _411
REMARK  169  A    between atoms: _410  and  _413
REMARK  170  A    between atoms: _413  and  _414
REMARK  171  A    between atoms: _417  and  _419
REMARK  172  A    between atoms: _419  and  _420
REMARK  173  A    between atoms: _422  and  _424
REMARK  174  A    between atoms: _424  and  _425
REMARK  175  A    between atoms: _429  and  _430
REMARK  176  A    between atoms: _429  and  _432
REMARK  177  A    between atoms: _432  and  _433
REMARK  178  A    between atoms: _436  and  _438
REMARK  179  A    between atoms: _438  and  _439
REMARK  180  A    between atoms: _441  and  _443
REMARK  181  A    between atoms: _443  and  _444
REMARK  182  A    between atoms: _446  and  _448
REMARK  183  A    between atoms: _448  and  _449
REMARK  184  A    between atoms: _448  and  _451
REMARK  185  A    between atoms: _451  and  _452
REMARK  186  A    between atoms: _458  and  _460
REMARK  187  A    between atoms: _460  and  _461
REMARK  188  A    between atoms: _460  and  _463
REMARK  189  A    between atoms: _463  and  _464
REMARK  190  A    between atoms: _467  and  _469
REMARK  191  A    between atoms: _469  and  _470
REMARK  192  A    between atoms: _469  and  _472
REMARK  193  A    between atoms: _472  and  _473
REMARK  194  A    between atoms: _476  and  _478
REMARK  195  A    between atoms: _478  and  _479
REMARK  196  A    between atoms: _478  and  _481
REMARK  197  A    between atoms: _481  and  _482
REMARK  198  A    between atoms: _486  and  _487
REMARK  199  A    between atoms: _492  and  _494
REMARK  200  A    between atoms: _494  and  _495
REMARK  201  A    between atoms: _494  and  _497
REMARK  202  A    between atoms: _500  and  _502
REMARK  203  A    between atoms: _502  and  _503
REMARK  204  A    between atoms: _502  and  _505
REMARK  205  A    between atoms: _505  and  _506
REMARK  206  A    between atoms: _511  and  _513
REMARK  207  A    between atoms: _513  and  _514
REMARK  208  A    between atoms: _513  and  _516
REMARK  209  A    between atoms: _516  and  _517
REMARK  210  A    between atoms: _520  and  _522
REMARK  211  A    between atoms: _522  and  _523
REMARK  212  A    between atoms: _525  and  _527
REMARK  213  A    between atoms: _527  and  _528
REMARK  214  A    between atoms: _527  and  _530
REMARK  215  A    between atoms: _530  and  _531
REMARK  216  A    between atoms: _531  and  _532
REMARK  217  A    between atoms: _532  and  _533
REMARK                            x       y       z     vdW  Elec       q    Type
REMARK                         _______ _______ _______ _____ _____    ______ ____
ROOT
ATOM      1  O   HOH     1       5.598  26.016  -6.354  0.00  0.00    +0.000 OA
ENDROOT
TORSDOF 0
REMARK  Name = ../refined-set-2016/1d4y/1d4y_pocket.pdb
REMARK  217 active torsions:
REMARK  status: ('A' for Active; 'I' for Inactive)
REMARK    1  A    between atoms: _1  and  _3
REMARK    2  A    between atoms: _3  and  _4
REMARK    3  A    between atoms: _3  and  _6
REMARK    4  A    between atoms: _6  and  _7
REMARK    5  A    between atoms: _7  and  _8
REMARK    6  A    between atoms: _8  and  _9
REMARK    7  A    between atoms: _18  and  _20
REMARK    8  A    between atoms: _20  and  _21
REMARK    9  A    between atoms: _20  and  _23
REMARK   10  A    between atoms: _23  and  _24
REMARK   11  A    between atoms: _27  and  _29
REMARK   12  A    between atoms: _29  and  _30
REMARK   13  A    between atoms: _29  and  _32
REMARK   14  A    between atoms: _32  and  _33
REMARK   15  A    between atoms: _36  and  _38
REMARK   16  A    between atoms: _38  and  _39
REMARK   17  A    between atoms: _38  and  _41
REMARK   18  A    between atoms: _41  and  _42
REMARK   19  A    between atoms: _45  and  _47
REMARK   20  A    between atoms: _47  and  _48
REMARK   21  A    between atoms: _47  and  _50
REMARK   22  A    between atoms: _50  and  _51
REMARK   23  A    between atoms: _54  and  _56
REMARK   24  A    between atoms: _56  and  _57
REMARK   25  A    between atoms: _56  and  _59
REMARK   26  A    between atoms: _59  and  _60
REMARK   27  A    between atoms: _63  and  _65
REMARK   28  A    between atoms: _65  and  _66
REMARK   29  A    between atoms: _68  and  _70
REMARK   30  A    between atoms: _70  and  _71
REMARK   31  A    between atoms: _74  and  _76
REMARK   32  A    between atoms: _76  and  _77
REMARK   33  A    between atoms: _76  and  _79
REMARK   34  A    between atoms: _79  and  _80
REMARK   35  A    between atoms: _83  and  _85
REMARK   36  A    between atoms: _85  and  _86
REMARK   37  A    between atoms: _85  and  _88
REMARK   38  A    between atoms: _88  and  _89
REMARK   39  A    between atoms: _92  and  _94
REMARK   40  A    between atoms: _94  and  _95
REMARK   41  A    between atoms: _94  and  _97
REMARK   42  A    between atoms: _97  and  _98
REMARK   43  A    between atoms: _101  and  _103
REMARK   44  A    between atoms: _103  and  _104
REMARK   45  A    between atoms: _103  and  _106
REMARK   46  A    between atoms: _109  and  _111
REMARK   47  A    between atoms: _111  and  _112
REMARK   48  A    between atoms: _111  and  _114
REMARK   49  A    between atoms: _114  and  _115
REMARK   50  A    between atoms: _115  and  _116
REMARK   51  A    between atoms: _116  and  _117
REMARK   52  A    between atoms: _117  and  _118
REMARK   53  A    between atoms: _122  and  _124
REMARK   54  A    between atoms: _124  and  _125
REMARK   55  A    between atoms: _124  and  _127
REMARK   56  A    between atoms: _127  and  _128
REMARK   57  A    between atoms: _128  and  _129
REMARK   58  A    between atoms: _131  and  _133
REMARK   59  A    between atoms: _133  and  _134
REMARK   60  A    between atoms: _133  and  _136
REMARK   61  A    between atoms: _136  and  _137
REMARK   62  A    between atoms: _140  and  _142
REMARK   63  A    between atoms: _142  and  _143
REMARK   64  A    between atoms: _145  and  _147
REMARK   65  A    between atoms: _147  and  _148
REMARK   66  A    between atoms: _150  and  _152
REMARK   67  A    between atoms: _152  and  _153
REMARK   68  A    between atoms: _152  and  _155
REMARK   69  A    between atoms: _155  and  _156
REMARK   70  A    between atoms: _159  and  _161
REMARK   71  A    between atoms: _161  and  _162
REMARK   72  A    between atoms: _164  and  _166
REMARK   73  A    between atoms: _166  and  _167
REMARK   74  A    between atoms: _169  and  _171
REMARK   75  A    between atoms: _171  and  _172
REMARK   76  A    between atoms: _171  and  _174
REMARK   77  A    between atoms: _174  and  _175
REMARK   78  A    between atoms: _181  and  _183
REMARK   79  A    between atoms: _183  and  _184
REMARK   80  A    between atoms: _183  and  _186
REMARK   81  A    between atoms: _186  and  _187
REMARK   82  A    between atoms: _190  and  _192
REMARK   83  A    between atoms: _192  and  _193
REMARK   84  A    between atoms: _192  and  _195
REMARK   85  A    between atoms: _198  and  _200
REMARK   86  A    between atoms: _200  and  _201
REMARK   87  A    between atoms: _200  and  _203
REMARK   88  A    between atoms: _203  and  _204
REMARK   89  A    between atoms: _207  and  _209
REMARK   90  A    between atoms: _209  and  _210
REMARK   91  A    between atoms: _209  and  _212
REMARK   92  A    between atoms: _212  and  _213
REMARK   93  A    between atoms: _217  and  _218
REMARK   94  A    between atoms: _223  and  _225
REMARK   95  A    between atoms: _225  and  _226
REMARK   96  A    between atoms: _225  and  _228
REMARK   97  A    between atoms: _231  and  _233
REMARK   98  A    between atoms: _233  and  _234
REMARK   99  A    between atoms: _233  and  _236
REMARK  100  A    between atoms: _236  and  _237
REMARK  101  A    between atoms: _242  and  _244
REMARK  102  A    between atoms: _244  and  _245
REMARK  103  A    between atoms: _244  and  _247
REMARK  104  A    between atoms: _247  and  _248
REMARK  105  A    between atoms: _251  and  _253
REMARK  106  A    between atoms: _253  and  _254
REMARK  107  A    between atoms: _253  and  _256
REMARK  108  A    between atoms: _256  and  _257
REMARK  109  A    between atoms: _260  and  _262
REMARK  110  A    between atoms: _262  and  _263
REMARK  111  A    between atoms: _265  and  _267
REMARK  112  A    between atoms: _267  and  _268
REMARK  113  A    between atoms: _267  and  _270
REMARK  114  A    between atoms: _270  and  _271
REMARK  115  A    between atoms: _271  and  _272
REMARK  116  A    between atoms: _272  and  _273
REMARK  117  A    between atoms: _282  and  _284
REMARK  118  A    between atoms: _284  and  _285
REMARK  119  A    between atoms: _284  and  _287
REMARK  120  A    between atoms: _287  and  _288
REMARK  121  A    between atoms: _293  and  _295
REMARK  122  A    between atoms: _295  and  _296
REMARK  123  A    between atoms: _295  and  _298
REMARK  124  A    between atoms: _298  and  _299
REMARK  125  A    between atoms: _299  and  _300
REMARK  126  A    between atoms: _300  and  _301
REMARK  127  A    between atoms: _311  and  _312
REMARK  128  A    between atoms: _317  and  _319
REMARK  129  A    between atoms: _319  and  _320
REMARK  130  A    between atoms: _319  and  _322
REMARK  131  A    between atoms: _322  and  _323
REMARK  132  A    between atoms: _326  and  _328
REMARK  133  A    between atoms: _328  and  _329
REMARK  134  A    between atoms: _328  and  _331
REMARK  135  A    between atoms: _331  and  _332
REMARK  136  A    between atoms: _335  and  _337
REMARK  137  A    between atoms: _337  and  _338
REMARK  138  A    between atoms: _337  and  _340
REMARK  139  A    between atoms: _340  and  _341
REMARK  140  A    between atoms: _344  and  _346
REMARK  141  A    between atoms: _346  and  _347
REMARK  142  A    between atoms: _346  and  _349
REMARK  143  A    between atoms: _349  and  _350
REMARK  144  A    between atoms: _353  and  _355
REMARK  145  A    between atoms: _355  and  _356
REMARK  146  A    between atoms: _355  and  _358
REMARK  147  A    between atoms: _358  and  _359
REMARK  148  A    between atoms: _362  and  _364
REMARK  149  A    between atoms: _364  and  _365
REMARK  150  A    between atoms: _367  and  _369
REMARK  151  A    between atoms: _369  and  _370
REMARK  152  A    between atoms: _373  and  _375
REMARK  153  A    between atoms: _375  and  _376
REMARK  154  A    between atoms: _375  and  _378
REMARK  155  A    between atoms: _378  and  _379
REMARK  156  A    between atoms: _382  and  _384
REMARK  157  A    between atoms: _384  and  _385
REMARK  158  A    between atoms: _384  and  _387
REMARK  159  A    between atoms: _387  and  _388
REMARK  160  A    between atoms: _391  and  _393
REMARK  161  A    between atoms: _393  and  _394
REMARK  162  A    between atoms: _393  and  _396
REMARK  163  A    between atoms: _396  and  _397
REMARK  164  A    between atoms: _400  and  _402
REMARK  165  A    between atoms: _402  and  _403
REMARK  166  A    between atoms: _402  and  _405
REMARK  167  A    between atoms: _408  and  _410
REMARK  168  A    between atoms: _410  and  _411
REMARK  169  A    between atoms: _410  and  _413
REMARK  170  A    between atoms: _413  and  _414
REMARK  171  A    between atoms: _417  and  _419
REMARK  172  A    between atoms: _419  and  _420
REMARK  173  A    between atoms: _422  and  _424
REMARK  174  A    between atoms: _424  and  _425
REMARK  175  A    between atoms: _429  and  _430
REMARK  176  A    between atoms: _429  and  _432
REMARK  177  A    between atoms: _432  and  _433
REMARK  178  A    between atoms: _436  and  _438
REMARK  179  A    between atoms: _438  and  _439
REMARK  180  A    between atoms: _441  and  _443
REMARK  181  A    between atoms: _443  and  _444
REMARK  182  A    between atoms: _446  and  _448
REMARK  183  A    between atoms: _448  and  _449
REMARK  184  A    between atoms: _448  and  _451
REMARK  185  A    between atoms: _451  and  _452
REMARK  186  A    between atoms: _458  and  _460
REMARK  187  A    between atoms: _460  and  _461
REMARK  188  A    between atoms: _460  and  _463
REMARK  189  A    between atoms: _463  and  _464
REMARK  190  A    between atoms: _467  and  _469
REMARK  191  A    between atoms: _469  and  _470
REMARK  192  A    between atoms: _469  and  _472
REMARK  193  A    between atoms: _472  and  _473
REMARK  194  A    between atoms: _476  and  _478
REMARK  195  A    between atoms: _478  and  _479
REMARK  196  A    between atoms: _478  and  _481
REMARK  197  A    between atoms: _481  and  _482
REMARK  198  A    between atoms: _486  and  _487
REMARK  199  A    between atoms: _492  and  _494
REMARK  200  A    between atoms: _494  and  _495
REMARK  201  A    between atoms: _494  and  _497
REMARK  202  A    between atoms: _500  and  _502
REMARK  203  A    between atoms: _502  and  _503
REMARK  204  A    between atoms: _502  and  _505
REMARK  205  A    between atoms: _505  and  _506
REMARK  206  A    between atoms: _511  and  _513
REMARK  207  A    between atoms: _513  and  _514
REMARK  208  A    between atoms: _513  and  _516
REMARK  209  A    between atoms: _516  and  _517
REMARK  210  A    between atoms: _520  and  _522
REMARK  211  A    between atoms: _522  and  _523
REMARK  212  A    between atoms: _525  and  _527
REMARK  213  A    between atoms: _527  and  _528
REMARK  214  A    between atoms: _527  and  _530
REMARK  215  A    between atoms: _530  and  _531
REMARK  216  A    between atoms: _531  and  _532
REMARK  217  A    between atoms: _532  and  _533
REMARK                            x       y       z     vdW  Elec       q    Type
REMARK                         _______ _______ _______ _____ _____    ______ ____
ROOT
ATOM      1  O   HOH     1       5.771  28.378  -3.786  0.00  0.00    +0.000 OA
ENDROOT
TORSDOF 0
REMARK  Name = ../refined-set-2016/1d4y/1d4y_pocket.pdb
REMARK  217 active torsions:
REMARK  status: ('A' for Active; 'I' for Inactive)
REMARK    1  A    between atoms: _1  and  _3
REMARK    2  A    between atoms: _3  and  _4
REMARK    3  A    between atoms: _3  and  _6
REMARK    4  A    between atoms: _6  and  _7
REMARK    5  A    between atoms: _7  and  _8
REMARK    6  A    between atoms: _8  and  _9
REMARK    7  A    between atoms: _18  and  _20
REMARK    8  A    between atoms: _20  and  _21
REMARK    9  A    between atoms: _20  and  _23
REMARK   10  A    between atoms: _23  and  _24
REMARK   11  A    between atoms: _27  and  _29
REMARK   12  A    between atoms: _29  and  _30
REMARK   13  A    between atoms: _29  and  _32
REMARK   14  A    between atoms: _32  and  _33
REMARK   15  A    between atoms: _36  and  _38
REMARK   16  A    between atoms: _38  and  _39
REMARK   17  A    between atoms: _38  and  _41
REMARK   18  A    between atoms: _41  and  _42
REMARK   19  A    between atoms: _45  and  _47
REMARK   20  A    between atoms: _47  and  _48
REMARK   21  A    between atoms: _47  and  _50
REMARK   22  A    between atoms: _50  and  _51
REMARK   23  A    between atoms: _54  and  _56
REMARK   24  A    between atoms: _56  and  _57
REMARK   25  A    between atoms: _56  and  _59
REMARK   26  A    between atoms: _59  and  _60
REMARK   27  A    between atoms: _63  and  _65
REMARK   28  A    between atoms: _65  and  _66
REMARK   29  A    between atoms: _68  and  _70
REMARK   30  A    between atoms: _70  and  _71
REMARK   31  A    between atoms: _74  and  _76
REMARK   32  A    between atoms: _76  and  _77
REMARK   33  A    between atoms: _76  and  _79
REMARK   34  A    between atoms: _79  and  _80
REMARK   35  A    between atoms: _83  and  _85
REMARK   36  A    between atoms: _85  and  _86
REMARK   37  A    between atoms: _85  and  _88
REMARK   38  A    between atoms: _88  and  _89
REMARK   39  A    between atoms: _92  and  _94
REMARK   40  A    between atoms: _94  and  _95
REMARK   41  A    between atoms: _94  and  _97
REMARK   42  A    between atoms: _97  and  _98
REMARK   43  A    between atoms: _101  and  _103
REMARK   44  A    between atoms: _103  and  _104
REMARK   45  A    between atoms: _103  and  _106
REMARK   46  A    between atoms: _109  and  _111
REMARK   47  A    between atoms: _111  and  _112
REMARK   48  A    between atoms: _111  and  _114
REMARK   49  A    between atoms: _114  and  _115
REMARK   50  A    between atoms: _115  and  _116
REMARK   51  A    between atoms: _116  and  _117
REMARK   52  A    between atoms: _117  and  _118
REMARK   53  A    between atoms: _122  and  _124
REMARK   54  A    between atoms: _124  and  _125
REMARK   55  A    between atoms: _124  and  _127
REMARK   56  A    between atoms: _127  and  _128
REMARK   57  A    between atoms: _128  and  _129
REMARK   58  A    between atoms: _131  and  _133
REMARK   59  A    between atoms: _133  and  _134
REMARK   60  A    between atoms: _133  and  _136
REMARK   61  A    between atoms: _136  and  _137
REMARK   62  A    between atoms: _140  and  _142
REMARK   63  A    between atoms: _142  and  _143
REMARK   64  A    between atoms: _145  and  _147
REMARK   65  A    between atoms: _147  and  _148
REMARK   66  A    between atoms: _150  and  _152
REMARK   67  A    between atoms: _152  and  _153
REMARK   68  A    between atoms: _152  and  _155
REMARK   69  A    between atoms: _155  and  _156
REMARK   70  A    between atoms: _159  and  _161
REMARK   71  A    between atoms: _161  and  _162
REMARK   72  A    between atoms: _164  and  _166
REMARK   73  A    between atoms: _166  and  _167
REMARK   74  A    between atoms: _169  and  _171
REMARK   75  A    between atoms: _171  and  _172
REMARK   76  A    between atoms: _171  and  _174
REMARK   77  A    between atoms: _174  and  _175
REMARK   78  A    between atoms: _181  and  _183
REMARK   79  A    between atoms: _183  and  _184
REMARK   80  A    between atoms: _183  and  _186
REMARK   81  A    between atoms: _186  and  _187
REMARK   82  A    between atoms: _190  and  _192
REMARK   83  A    between atoms: _192  and  _193
REMARK   84  A    between atoms: _192  and  _195
REMARK   85  A    between atoms: _198  and  _200
REMARK   86  A    between atoms: _200  and  _201
REMARK   87  A    between atoms: _200  and  _203
REMARK   88  A    between atoms: _203  and  _204
REMARK   89  A    between atoms: _207  and  _209
REMARK   90  A    between atoms: _209  and  _210
REMARK   91  A    between atoms: _209  and  _212
REMARK   92  A    between atoms: _212  and  _213
REMARK   93  A    between atoms: _217  and  _218
REMARK   94  A    between atoms: _223  and  _225
REMARK   95  A    between atoms: _225  and  _226
REMARK   96  A    between atoms: _225  and  _228
REMARK   97  A    between atoms: _231  and  _233
REMARK   98  A    between atoms: _233  and  _234
REMARK   99  A    between atoms: _233  and  _236
REMARK  100  A    between atoms: _236  and  _237
REMARK  101  A    between atoms: _242  and  _244
REMARK  102  A    between atoms: _244  and  _245
REMARK  103  A    between atoms: _244  and  _247
REMARK  104  A    between atoms: _247  and  _248
REMARK  105  A    between atoms: _251  and  _253
REMARK  106  A    between atoms: _253  and  _254
REMARK  107  A    between atoms: _253  and  _256
REMARK  108  A    between atoms: _256  and  _257
REMARK  109  A    between atoms: _260  and  _262
REMARK  110  A    between atoms: _262  and  _263
REMARK  111  A    between atoms: _265  and  _267
REMARK  112  A    between atoms: _267  and  _268
REMARK  113  A    between atoms: _267  and  _270
REMARK  114  A    between atoms: _270  and  _271
REMARK  115  A    between atoms: _271  and  _272
REMARK  116  A    between atoms: _272  and  _273
REMARK  117  A    between atoms: _282  and  _284
REMARK  118  A    between atoms: _284  and  _285
REMARK  119  A    between atoms: _284  and  _287
REMARK  120  A    between atoms: _287  and  _288
REMARK  121  A    between atoms: _293  and  _295
REMARK  122  A    between atoms: _295  and  _296
REMARK  123  A    between atoms: _295  and  _298
REMARK  124  A    between atoms: _298  and  _299
REMARK  125  A    between atoms: _299  and  _300
REMARK  126  A    between atoms: _300  and  _301
REMARK  127  A    between atoms: _311  and  _312
REMARK  128  A    between atoms: _317  and  _319
REMARK  129  A    between atoms: _319  and  _320
REMARK  130  A    between atoms: _319  and  _322
REMARK  131  A    between atoms: _322  and  _323
REMARK  132  A    between atoms: _326  and  _328
REMARK  133  A    between atoms: _328  and  _329
REMARK  134  A    between atoms: _328  and  _331
REMARK  135  A    between atoms: _331  and  _332
REMARK  136  A    between atoms: _335  and  _337
REMARK  137  A    between atoms: _337  and  _338
REMARK  138  A    between atoms: _337  and  _340
REMARK  139  A    between atoms: _340  and  _341
REMARK  140  A    between atoms: _344  and  _346
REMARK  141  A    between atoms: _346  and  _347
REMARK  142  A    between atoms: _346  and  _349
REMARK  143  A    between atoms: _349  and  _350
REMARK  144  A    between atoms: _353  and  _355
REMARK  145  A    between atoms: _355  and  _356
REMARK  146  A    between atoms: _355  and  _358
REMARK  147  A    between atoms: _358  and  _359
REMARK  148  A    between atoms: _362  and  _364
REMARK  149  A    between atoms: _364  and  _365
REMARK  150  A    between atoms: _367  and  _369
REMARK  151  A    between atoms: _369  and  _370
REMARK  152  A    between atoms: _373  and  _375
REMARK  153  A    between atoms: _375  and  _376
REMARK  154  A    between atoms: _375  and  _378
REMARK  155  A    between atoms: _378  and  _379
REMARK  156  A    between atoms: _382  and  _384
REMARK  157  A    between atoms: _384  and  _385
REMARK  158  A    between atoms: _384  and  _387
REMARK  159  A    between atoms: _387  and  _388
REMARK  160  A    between atoms: _391  and  _393
REMARK  161  A    between atoms: _393  and  _394
REMARK  162  A    between atoms: _393  and  _396
REMARK  163  A    between atoms: _396  and  _397
REMARK  164  A    between atoms: _400  and  _402
REMARK  165  A    between atoms: _402  and  _403
REMARK  166  A    between atoms: _402  and  _405
REMARK  167  A    between atoms: _408  and  _410
REMARK  168  A    between atoms: _410  and  _411
REMARK  169  A    between atoms: _410  and  _413
REMARK  170  A    between atoms: _413  and  _414
REMARK  171  A    between atoms: _417  and  _419
REMARK  172  A    between atoms: _419  and  _420
REMARK  173  A    between atoms: _422  and  _424
REMARK  174  A    between atoms: _424  and  _425
REMARK  175  A    between atoms: _429  and  _430
REMARK  176  A    between atoms: _429  and  _432
REMARK  177  A    between atoms: _432  and  _433
REMARK  178  A    between atoms: _436  and  _438
REMARK  179  A    between atoms: _438  and  _439
REMARK  180  A    between atoms: _441  and  _443
REMARK  181  A    between atoms: _443  and  _444
REMARK  182  A    between atoms: _446  and  _448
REMARK  183  A    between atoms: _448  and  _449
REMARK  184  A    between atoms: _448  and  _451
REMARK  185  A    between atoms: _451  and  _452
REMARK  186  A    between atoms: _458  and  _460
REMARK  187  A    between atoms: _460  and  _461
REMARK  188  A    between atoms: _460  and  _463
REMARK  189  A    between atoms: _463  and  _464
REMARK  190  A    between atoms: _467  and  _469
REMARK  191  A    between atoms: _469  and  _470
REMARK  192  A    between atoms: _469  and  _472
REMARK  193  A    between atoms: _472  and  _473
REMARK  194  A    between atoms: _476  and  _478
REMARK  195  A    between atoms: _478  and  _479
REMARK  196  A    between atoms: _478  and  _481
REMARK  197  A    between atoms: _481  and  _482
REMARK  198  A    between atoms: _486  and  _487
REMARK  199  A    between atoms: _492  and  _494
REMARK  200  A    between atoms: _494  and  _495
REMARK  201  A    between atoms: _494  and  _497
REMARK  202  A    between atoms: _500  and  _502
REMARK  203  A    between atoms: _502  and  _503
REMARK  204  A    between atoms: _502  and  _505
REMARK  205  A    between atoms: _505  and  _506
REMARK  206  A    between atoms: _511  and  _513
REMARK  207  A    between atoms: _513  and  _514
REMARK  208  A    between atoms: _513  and  _516
REMARK  209  A    between atoms: _516  and  _517
REMARK  210  A    between atoms: _520  and  _522
REMARK  211  A    between atoms: _522  and  _523
REMARK  212  A    between atoms: _525  and  _527
REMARK  213  A    between atoms: _527  and  _528
REMARK  214  A    between atoms: _527  and  _530
REMARK  215  A    between atoms: _530  and  _531
REMARK  216  A    between atoms: _531  and  _532
REMARK  217  A    between atoms: _532  and  _533
REMARK                            x       y       z     vdW  Elec       q    Type
REMARK                         _______ _______ _______ _____ _____    ______ ____
ROOT
ATOM      1  O   HOH     1       3.231  26.826  -0.909  0.00  0.00    +0.000 OA
ENDROOT
TORSDOF 0
REMARK  Name = ../refined-set-2016/1d4y/1d4y_pocket.pdb
REMARK  217 active torsions:
REMARK  status: ('A' for Active; 'I' for Inactive)
REMARK    1  A    between atoms: _1  and  _3
REMARK    2  A    between atoms: _3  and  _4
REMARK    3  A    between atoms: _3  and  _6
REMARK    4  A    between atoms: _6  and  _7
REMARK    5  A    between atoms: _7  and  _8
REMARK    6  A    between atoms: _8  and  _9
REMARK    7  A    between atoms: _18  and  _20
REMARK    8  A    between atoms: _20  and  _21
REMARK    9  A    between atoms: _20  and  _23
REMARK   10  A    between atoms: _23  and  _24
REMARK   11  A    between atoms: _27  and  _29
REMARK   12  A    between atoms: _29  and  _30
REMARK   13  A    between atoms: _29  and  _32
REMARK   14  A    between atoms: _32  and  _33
REMARK   15  A    between atoms: _36  and  _38
REMARK   16  A    between atoms: _38  and  _39
REMARK   17  A    between atoms: _38  and  _41
REMARK   18  A    between atoms: _41  and  _42
REMARK   19  A    between atoms: _45  and  _47
REMARK   20  A    between atoms: _47  and  _48
REMARK   21  A    between atoms: _47  and  _50
REMARK   22  A    between atoms: _50  and  _51
REMARK   23  A    between atoms: _54  and  _56
REMARK   24  A    between atoms: _56  and  _57
REMARK   25  A    between atoms: _56  and  _59
REMARK   26  A    between atoms: _59  and  _60
REMARK   27  A    between atoms: _63  and  _65
REMARK   28  A    between atoms: _65  and  _66
REMARK   29  A    between atoms: _68  and  _70
REMARK   30  A    between atoms: _70  and  _71
REMARK   31  A    between atoms: _74  and  _76
REMARK   32  A    between atoms: _76  and  _77
REMARK   33  A    between atoms: _76  and  _79
REMARK   34  A    between atoms: _79  and  _80
REMARK   35  A    between atoms: _83  and  _85
REMARK   36  A    between atoms: _85  and  _86
REMARK   37  A    between atoms: _85  and  _88
REMARK   38  A    between atoms: _88  and  _89
REMARK   39  A    between atoms: _92  and  _94
REMARK   40  A    between atoms: _94  and  _95
REMARK   41  A    between atoms: _94  and  _97
REMARK   42  A    between atoms: _97  and  _98
REMARK   43  A    between atoms: _101  and  _103
REMARK   44  A    between atoms: _103  and  _104
REMARK   45  A    between atoms: _103  and  _106
REMARK   46  A    between atoms: _109  and  _111
REMARK   47  A    between atoms: _111  and  _112
REMARK   48  A    between atoms: _111  and  _114
REMARK   49  A    between atoms: _114  and  _115
REMARK   50  A    between atoms: _115  and  _116
REMARK   51  A    between atoms: _116  and  _117
REMARK   52  A    between atoms: _117  and  _118
REMARK   53  A    between atoms: _122  and  _124
REMARK   54  A    between atoms: _124  and  _125
REMARK   55  A    between atoms: _124  and  _127
REMARK   56  A    between atoms: _127  and  _128
REMARK   57  A    between atoms: _128  and  _129
REMARK   58  A    between atoms: _131  and  _133
REMARK   59  A    between atoms: _133  and  _134
REMARK   60  A    between atoms: _133  and  _136
REMARK   61  A    between atoms: _136  and  _137
REMARK   62  A    between atoms: _140  and  _142
REMARK   63  A    between atoms: _142  and  _143
REMARK   64  A    between atoms: _145  and  _147
REMARK   65  A    between atoms: _147  and  _148
REMARK   66  A    between atoms: _150  and  _152
REMARK   67  A    between atoms: _152  and  _153
REMARK   68  A    between atoms: _152  and  _155
REMARK   69  A    between atoms: _155  and  _156
REMARK   70  A    between atoms: _159  and  _161
REMARK   71  A    between atoms: _161  and  _162
REMARK   72  A    between atoms: _164  and  _166
REMARK   73  A    between atoms: _166  and  _167
REMARK   74  A    between atoms: _169  and  _171
REMARK   75  A    between atoms: _171  and  _172
REMARK   76  A    between atoms: _171  and  _174
REMARK   77  A    between atoms: _174  and  _175
REMARK   78  A    between atoms: _181  and  _183
REMARK   79  A    between atoms: _183  and  _184
REMARK   80  A    between atoms: _183  and  _186
REMARK   81  A    between atoms: _186  and  _187
REMARK   82  A    between atoms: _190  and  _192
REMARK   83  A    between atoms: _192  and  _193
REMARK   84  A    between atoms: _192  and  _195
REMARK   85  A    between atoms: _198  and  _200
REMARK   86  A    between atoms: _200  and  _201
REMARK   87  A    between atoms: _200  and  _203
REMARK   88  A    between atoms: _203  and  _204
REMARK   89  A    between atoms: _207  and  _209
REMARK   90  A    between atoms: _209  and  _210
REMARK   91  A    between atoms: _209  and  _212
REMARK   92  A    between atoms: _212  and  _213
REMARK   93  A    between atoms: _217  and  _218
REMARK   94  A    between atoms: _223  and  _225
REMARK   95  A    between atoms: _225  and  _226
REMARK   96  A    between atoms: _225  and  _228
REMARK   97  A    between atoms: _231  and  _233
REMARK   98  A    between atoms: _233  and  _234
REMARK   99  A    between atoms: _233  and  _236
REMARK  100  A    between atoms: _236  and  _237
REMARK  101  A    between atoms: _242  and  _244
REMARK  102  A    between atoms: _244  and  _245
REMARK  103  A    between atoms: _244  and  _247
REMARK  104  A    between atoms: _247  and  _248
REMARK  105  A    between atoms: _251  and  _253
REMARK  106  A    between atoms: _253  and  _254
REMARK  107  A    between atoms: _253  and  _256
REMARK  108  A    between atoms: _256  and  _257
REMARK  109  A    between atoms: _260  and  _262
REMARK  110  A    between atoms: _262  and  _263
REMARK  111  A    between atoms: _265  and  _267
REMARK  112  A    between atoms: _267  and  _268
REMARK  113  A    between atoms: _267  and  _270
REMARK  114  A    between atoms: _270  and  _271
REMARK  115  A    between atoms: _271  and  _272
REMARK  116  A    between atoms: _272  and  _273
REMARK  117  A    between atoms: _282  and  _284
REMARK  118  A    between atoms: _284  and  _285
REMARK  119  A    between atoms: _284  and  _287
REMARK  120  A    between atoms: _287  and  _288
REMARK  121  A    between atoms: _293  and  _295
REMARK  122  A    between atoms: _295  and  _296
REMARK  123  A    between atoms: _295  and  _298
REMARK  124  A    between atoms: _298  and  _299
REMARK  125  A    between atoms: _299  and  _300
REMARK  126  A    between atoms: _300  and  _301
REMARK  127  A    between atoms: _311  and  _312
REMARK  128  A    between atoms: _317  and  _319
REMARK  129  A    between atoms: _319  and  _320
REMARK  130  A    between atoms: _319  and  _322
REMARK  131  A    between atoms: _322  and  _323
REMARK  132  A    between atoms: _326  and  _328
REMARK  133  A    between atoms: _328  and  _329
REMARK  134  A    between atoms: _328  and  _331
REMARK  135  A    between atoms: _331  and  _332
REMARK  136  A    between atoms: _335  and  _337
REMARK  137  A    between atoms: _337  and  _338
REMARK  138  A    between atoms: _337  and  _340
REMARK  139  A    between atoms: _340  and  _341
REMARK  140  A    between atoms: _344  and  _346
REMARK  141  A    between atoms: _346  and  _347
REMARK  142  A    between atoms: _346  and  _349
REMARK  143  A    between atoms: _349  and  _350
REMARK  144  A    between atoms: _353  and  _355
REMARK  145  A    between atoms: _355  and  _356
REMARK  146  A    between atoms: _355  and  _358
REMARK  147  A    between atoms: _358  and  _359
REMARK  148  A    between atoms: _362  and  _364
REMARK  149  A    between atoms: _364  and  _365
REMARK  150  A    between atoms: _367  and  _369
REMARK  151  A    between atoms: _369  and  _370
REMARK  152  A    between atoms: _373  and  _375
REMARK  153  A    between atoms: _375  and  _376
REMARK  154  A    between atoms: _375  and  _378
REMARK  155  A    between atoms: _378  and  _379
REMARK  156  A    between atoms: _382  and  _384
REMARK  157  A    between atoms: _384  and  _385
REMARK  158  A    between atoms: _384  and  _387
REMARK  159  A    between atoms: _387  and  _388
REMARK  160  A    between atoms: _391  and  _393
REMARK  161  A    between atoms: _393  and  _394
REMARK  162  A    between atoms: _393  and  _396
REMARK  163  A    between atoms: _396  and  _397
REMARK  164  A    between atoms: _400  and  _402
REMARK  165  A    between atoms: _402  and  _403
REMARK  166  A    between atoms: _402  and  _405
REMARK  167  A    between atoms: _408  and  _410
REMARK  168  A    between atoms: _410  and  _411
REMARK  169  A    between atoms: _410  and  _413
REMARK  170  A    between atoms: _413  and  _414
REMARK  171  A    between atoms: _417  and  _419
REMARK  172  A    between atoms: _419  and  _420
REMARK  173  A    between atoms: _422  and  _424
REMARK  174  A    between atoms: _424  and  _425
REMARK  175  A    between atoms: _429  and  _430
REMARK  176  A    between atoms: _429  and  _432
REMARK  177  A    between atoms: _432  and  _433
REMARK  178  A    between atoms: _436  and  _438
REMARK  179  A    between atoms: _438  and  _439
REMARK  180  A    between atoms: _441  and  _443
REMARK  181  A    between atoms: _443  and  _444
REMARK  182  A    between atoms: _446  and  _448
REMARK  183  A    between atoms: _448  and  _449
REMARK  184  A    between atoms: _448  and  _451
REMARK  185  A    between atoms: _451  and  _452
REMARK  186  A    between atoms: _458  and  _460
REMARK  187  A    between atoms: _460  and  _461
REMARK  188  A    between atoms: _460  and  _463
REMARK  189  A    between atoms: _463  and  _464
REMARK  190  A    between atoms: _467  and  _469
REMARK  191  A    between atoms: _469  and  _470
REMARK  192  A    between atoms: _469  and  _472
REMARK  193  A    between atoms: _472  and  _473
REMARK  194  A    between atoms: _476  and  _478
REMARK  195  A    between atoms: _478  and  _479
REMARK  196  A    between atoms: _478  and  _481
REMARK  197  A    between atoms: _481  and  _482
REMARK  198  A    between atoms: _486  and  _487
REMARK  199  A    between atoms: _492  and  _494
REMARK  200  A    between atoms: _494  and  _495
REMARK  201  A    between atoms: _494  and  _497
REMARK  202  A    between atoms: _500  and  _502
REMARK  203  A    between atoms: _502  and  _503
REMARK  204  A    between atoms: _502  and  _505
REMARK  205  A    between atoms: _505  and  _506
REMARK  206  A    between atoms: _511  and  _513
REMARK  207  A    between atoms: _513  and  _514
REMARK  208  A    between atoms: _513  and  _516
REMARK  209  A    between atoms: _516  and  _517
REMARK  210  A    between atoms: _520  and  _522
REMARK  211  A    between atoms: _522  and  _523
REMARK  212  A    between atoms: _525  and  _527
REMARK  213  A    between atoms: _527  and  _528
REMARK  214  A    between atoms: _527  and  _530
REMARK  215  A    between atoms: _530  and  _531
REMARK  216  A    between atoms: _531  and  _532
REMARK  217  A    between atoms: _532  and  _533
REMARK                            x       y       z     vdW  Elec       q    Type
REMARK                         _______ _______ _______ _____ _____    ______ ____
ROOT
ATOM      1  O   HOH     1      20.434  14.172   7.904  0.00  0.00    +0.000 OA
ENDROOT
TORSDOF 0
REMARK  Name = ../refined-set-2016/1d4y/1d4y_pocket.pdb
REMARK  217 active torsions:
REMARK  status: ('A' for Active; 'I' for Inactive)
REMARK    1  A    between atoms: _1  and  _3
REMARK    2  A    between atoms: _3  and  _4
REMARK    3  A    between atoms: _3  and  _6
REMARK    4  A    between atoms: _6  and  _7
REMARK    5  A    between atoms: _7  and  _8
REMARK    6  A    between atoms: _8  and  _9
REMARK    7  A    between atoms: _18  and  _20
REMARK    8  A    between atoms: _20  and  _21
REMARK    9  A    between atoms: _20  and  _23
REMARK   10  A    between atoms: _23  and  _24
REMARK   11  A    between atoms: _27  and  _29
REMARK   12  A    between atoms: _29  and  _30
REMARK   13  A    between atoms: _29  and  _32
REMARK   14  A    between atoms: _32  and  _33
REMARK   15  A    between atoms: _36  and  _38
REMARK   16  A    between atoms: _38  and  _39
REMARK   17  A    between atoms: _38  and  _41
REMARK   18  A    between atoms: _41  and  _42
REMARK   19  A    between atoms: _45  and  _47
REMARK   20  A    between atoms: _47  and  _48
REMARK   21  A    between atoms: _47  and  _50
REMARK   22  A    between atoms: _50  and  _51
REMARK   23  A    between atoms: _54  and  _56
REMARK   24  A    between atoms: _56  and  _57
REMARK   25  A    between atoms: _56  and  _59
REMARK   26  A    between atoms: _59  and  _60
REMARK   27  A    between atoms: _63  and  _65
REMARK   28  A    between atoms: _65  and  _66
REMARK   29  A    between atoms: _68  and  _70
REMARK   30  A    between atoms: _70  and  _71
REMARK   31  A    between atoms: _74  and  _76
REMARK   32  A    between atoms: _76  and  _77
REMARK   33  A    between atoms: _76  and  _79
REMARK   34  A    between atoms: _79  and  _80
REMARK   35  A    between atoms: _83  and  _85
REMARK   36  A    between atoms: _85  and  _86
REMARK   37  A    between atoms: _85  and  _88
REMARK   38  A    between atoms: _88  and  _89
REMARK   39  A    between atoms: _92  and  _94
REMARK   40  A    between atoms: _94  and  _95
REMARK   41  A    between atoms: _94  and  _97
REMARK   42  A    between atoms: _97  and  _98
REMARK   43  A    between atoms: _101  and  _103
REMARK   44  A    between atoms: _103  and  _104
REMARK   45  A    between atoms: _103  and  _106
REMARK   46  A    between atoms: _109  and  _111
REMARK   47  A    between atoms: _111  and  _112
REMARK   48  A    between atoms: _111  and  _114
REMARK   49  A    between atoms: _114  and  _115
REMARK   50  A    between atoms: _115  and  _116
REMARK   51  A    between atoms: _116  and  _117
REMARK   52  A    between atoms: _117  and  _118
REMARK   53  A    between atoms: _122  and  _124
REMARK   54  A    between atoms: _124  and  _125
REMARK   55  A    between atoms: _124  and  _127
REMARK   56  A    between atoms: _127  and  _128
REMARK   57  A    between atoms: _128  and  _129
REMARK   58  A    between atoms: _131  and  _133
REMARK   59  A    between atoms: _133  and  _134
REMARK   60  A    between atoms: _133  and  _136
REMARK   61  A    between atoms: _136  and  _137
REMARK   62  A    between atoms: _140  and  _142
REMARK   63  A    between atoms: _142  and  _143
REMARK   64  A    between atoms: _145  and  _147
REMARK   65  A    between atoms: _147  and  _148
REMARK   66  A    between atoms: _150  and  _152
REMARK   67  A    between atoms: _152  and  _153
REMARK   68  A    between atoms: _152  and  _155
REMARK   69  A    between atoms: _155  and  _156
REMARK   70  A    between atoms: _159  and  _161
REMARK   71  A    between atoms: _161  and  _162
REMARK   72  A    between atoms: _164  and  _166
REMARK   73  A    between atoms: _166  and  _167
REMARK   74  A    between atoms: _169  and  _171
REMARK   75  A    between atoms: _171  and  _172
REMARK   76  A    between atoms: _171  and  _174
REMARK   77  A    between atoms: _174  and  _175
REMARK   78  A    between atoms: _181  and  _183
REMARK   79  A    between atoms: _183  and  _184
REMARK   80  A    between atoms: _183  and  _186
REMARK   81  A    between atoms: _186  and  _187
REMARK   82  A    between atoms: _190  and  _192
REMARK   83  A    between atoms: _192  and  _193
REMARK   84  A    between atoms: _192  and  _195
REMARK   85  A    between atoms: _198  and  _200
REMARK   86  A    between atoms: _200  and  _201
REMARK   87  A    between atoms: _200  and  _203
REMARK   88  A    between atoms: _203  and  _204
REMARK   89  A    between atoms: _207  and  _209
REMARK   90  A    between atoms: _209  and  _210
REMARK   91  A    between atoms: _209  and  _212
REMARK   92  A    between atoms: _212  and  _213
REMARK   93  A    between atoms: _217  and  _218
REMARK   94  A    between atoms: _223  and  _225
REMARK   95  A    between atoms: _225  and  _226
REMARK   96  A    between atoms: _225  and  _228
REMARK   97  A    between atoms: _231  and  _233
REMARK   98  A    between atoms: _233  and  _234
REMARK   99  A    between atoms: _233  and  _236
REMARK  100  A    between atoms: _236  and  _237
REMARK  101  A    between atoms: _242  and  _244
REMARK  102  A    between atoms: _244  and  _245
REMARK  103  A    between atoms: _244  and  _247
REMARK  104  A    between atoms: _247  and  _248
REMARK  105  A    between atoms: _251  and  _253
REMARK  106  A    between atoms: _253  and  _254
REMARK  107  A    between atoms: _253  and  _256
REMARK  108  A    between atoms: _256  and  _257
REMARK  109  A    between atoms: _260  and  _262
REMARK  110  A    between atoms: _262  and  _263
REMARK  111  A    between atoms: _265  and  _267
REMARK  112  A    between atoms: _267  and  _268
REMARK  113  A    between atoms: _267  and  _270
REMARK  114  A    between atoms: _270  and  _271
REMARK  115  A    between atoms: _271  and  _272
REMARK  116  A    between atoms: _272  and  _273
REMARK  117  A    between atoms: _282  and  _284
REMARK  118  A    between atoms: _284  and  _285
REMARK  119  A    between atoms: _284  and  _287
REMARK  120  A    between atoms: _287  and  _288
REMARK  121  A    between atoms: _293  and  _295
REMARK  122  A    between atoms: _295  and  _296
REMARK  123  A    between atoms: _295  and  _298
REMARK  124  A    between atoms: _298  and  _299
REMARK  125  A    between atoms: _299  and  _300
REMARK  126  A    between atoms: _300  and  _301
REMARK  127  A    between atoms: _311  and  _312
REMARK  128  A    between atoms: _317  and  _319
REMARK  129  A    between atoms: _319  and  _320
REMARK  130  A    between atoms: _319  and  _322
REMARK  131  A    between atoms: _322  and  _323
REMARK  132  A    between atoms: _326  and  _328
REMARK  133  A    between atoms: _328  and  _329
REMARK  134  A    between atoms: _328  and  _331
REMARK  135  A    between atoms: _331  and  _332
REMARK  136  A    between atoms: _335  and  _337
REMARK  137  A    between atoms: _337  and  _338
REMARK  138  A    between atoms: _337  and  _340
REMARK  139  A    between atoms: _340  and  _341
REMARK  140  A    between atoms: _344  and  _346
REMARK  141  A    between atoms: _346  and  _347
REMARK  142  A    between atoms: _346  and  _349
REMARK  143  A    between atoms: _349  and  _350
REMARK  144  A    between atoms: _353  and  _355
REMARK  145  A    between atoms: _355  and  _356
REMARK  146  A    between atoms: _355  and  _358
REMARK  147  A    between atoms: _358  and  _359
REMARK  148  A    between atoms: _362  and  _364
REMARK  149  A    between atoms: _364  and  _365
REMARK  150  A    between atoms: _367  and  _369
REMARK  151  A    between atoms: _369  and  _370
REMARK  152  A    between atoms: _373  and  _375
REMARK  153  A    between atoms: _375  and  _376
REMARK  154  A    between atoms: _375  and  _378
REMARK  155  A    between atoms: _378  and  _379
REMARK  156  A    between atoms: _382  and  _384
REMARK  157  A    between atoms: _384  and  _385
REMARK  158  A    between atoms: _384  and  _387
REMARK  159  A    between atoms: _387  and  _388
REMARK  160  A    between atoms: _391  and  _393
REMARK  161  A    between atoms: _393  and  _394
REMARK  162  A    between atoms: _393  and  _396
REMARK  163  A    between atoms: _396  and  _397
REMARK  164  A    between atoms: _400  and  _402
REMARK  165  A    between atoms: _402  and  _403
REMARK  166  A    between atoms: _402  and  _405
REMARK  167  A    between atoms: _408  and  _410
REMARK  168  A    between atoms: _410  and  _411
REMARK  169  A    between atoms: _410  and  _413
REMARK  170  A    between atoms: _413  and  _414
REMARK  171  A    between atoms: _417  and  _419
REMARK  172  A    between atoms: _419  and  _420
REMARK  173  A    between atoms: _422  and  _424
REMARK  174  A    between atoms: _424  and  _425
REMARK  175  A    between atoms: _429  and  _430
REMARK  176  A    between atoms: _429  and  _432
REMARK  177  A    between atoms: _432  and  _433
REMARK  178  A    between atoms: _436  and  _438
REMARK  179  A    between atoms: _438  and  _439
REMARK  180  A    between atoms: _441  and  _443
REMARK  181  A    between atoms: _443  and  _444
REMARK  182  A    between atoms: _446  and  _448
REMARK  183  A    between atoms: _448  and  _449
REMARK  184  A    between atoms: _448  and  _451
REMARK  185  A    between atoms: _451  and  _452
REMARK  186  A    between atoms: _458  and  _460
REMARK  187  A    between atoms: _460  and  _461
REMARK  188  A    between atoms: _460  and  _463
REMARK  189  A    between atoms: _463  and  _464
REMARK  190  A    between atoms: _467  and  _469
REMARK  191  A    between atoms: _469  and  _470
REMARK  192  A    between atoms: _469  and  _472
REMARK  193  A    between atoms: _472  and  _473
REMARK  194  A    between atoms: _476  and  _478
REMARK  195  A    between atoms: _478  and  _479
REMARK  196  A    between atoms: _478  and  _481
REMARK  197  A    between atoms: _481  and  _482
REMARK  198  A    between atoms: _486  and  _487
REMARK  199  A    between atoms: _492  and  _494
REMARK  200  A    between atoms: _494  and  _495
REMARK  201  A    between atoms: _494  and  _497
REMARK  202  A    between atoms: _500  and  _502
REMARK  203  A    between atoms: _502  and  _503
REMARK  204  A    between atoms: _502  and  _505
REMARK  205  A    between atoms: _505  and  _506
REMARK  206  A    between atoms: _511  and  _513
REMARK  207  A    between atoms: _513  and  _514
REMARK  208  A    between atoms: _513  and  _516
REMARK  209  A    between atoms: _516  and  _517
REMARK  210  A    between atoms: _520  and  _522
REMARK  211  A    between atoms: _522  and  _523
REMARK  212  A    between atoms: _525  and  _527
REMARK  213  A    between atoms: _527  and  _528
REMARK  214  A    between atoms: _527  and  _530
REMARK  215  A    between atoms: _530  and  _531
REMARK  216  A    between atoms: _531  and  _532
REMARK  217  A    between atoms: _532  and  _533
REMARK                            x       y       z     vdW  Elec       q    Type
REMARK                         _______ _______ _______ _____ _____    ______ ____
ROOT
ATOM      1  O   HOH     1       4.670  24.342  -4.513  0.00  0.00    +0.000 OA
ENDROOT
TORSDOF 0
REMARK  Name = ../refined-set-2016/1d4y/1d4y_pocket.pdb
REMARK  217 active torsions:
REMARK  status: ('A' for Active; 'I' for Inactive)
REMARK    1  A    between atoms: _1  and  _3
REMARK    2  A    between atoms: _3  and  _4
REMARK    3  A    between atoms: _3  and  _6
REMARK    4  A    between atoms: _6  and  _7
REMARK    5  A    between atoms: _7  and  _8
REMARK    6  A    between atoms: _8  and  _9
REMARK    7  A    between atoms: _18  and  _20
REMARK    8  A    between atoms: _20  and  _21
REMARK    9  A    between atoms: _20  and  _23
REMARK   10  A    between atoms: _23  and  _24
REMARK   11  A    between atoms: _27  and  _29
REMARK   12  A    between atoms: _29  and  _30
REMARK   13  A    between atoms: _29  and  _32
REMARK   14  A    between atoms: _32  and  _33
REMARK   15  A    between atoms: _36  and  _38
REMARK   16  A    between atoms: _38  and  _39
REMARK   17  A    between atoms: _38  and  _41
REMARK   18  A    between atoms: _41  and  _42
REMARK   19  A    between atoms: _45  and  _47
REMARK   20  A    between atoms: _47  and  _48
REMARK   21  A    between atoms: _47  and  _50
REMARK   22  A    between atoms: _50  and  _51
REMARK   23  A    between atoms: _54  and  _56
REMARK   24  A    between atoms: _56  and  _57
REMARK   25  A    between atoms: _56  and  _59
REMARK   26  A    between atoms: _59  and  _60
REMARK   27  A    between atoms: _63  and  _65
REMARK   28  A    between atoms: _65  and  _66
REMARK   29  A    between atoms: _68  and  _70
REMARK   30  A    between atoms: _70  and  _71
REMARK   31  A    between atoms: _74  and  _76
REMARK   32  A    between atoms: _76  and  _77
REMARK   33  A    between atoms: _76  and  _79
REMARK   34  A    between atoms: _79  and  _80
REMARK   35  A    between atoms: _83  and  _85
REMARK   36  A    between atoms: _85  and  _86
REMARK   37  A    between atoms: _85  and  _88
REMARK   38  A    between atoms: _88  and  _89
REMARK   39  A    between atoms: _92  and  _94
REMARK   40  A    between atoms: _94  and  _95
REMARK   41  A    between atoms: _94  and  _97
REMARK   42  A    between atoms: _97  and  _98
REMARK   43  A    between atoms: _101  and  _103
REMARK   44  A    between atoms: _103  and  _104
REMARK   45  A    between atoms: _103  and  _106
REMARK   46  A    between atoms: _109  and  _111
REMARK   47  A    between atoms: _111  and  _112
REMARK   48  A    between atoms: _111  and  _114
REMARK   49  A    between atoms: _114  and  _115
REMARK   50  A    between atoms: _115  and  _116
REMARK   51  A    between atoms: _116  and  _117
REMARK   52  A    between atoms: _117  and  _118
REMARK   53  A    between atoms: _122  and  _124
REMARK   54  A    between atoms: _124  and  _125
REMARK   55  A    between atoms: _124  and  _127
REMARK   56  A    between atoms: _127  and  _128
REMARK   57  A    between atoms: _128  and  _129
REMARK   58  A    between atoms: _131  and  _133
REMARK   59  A    between atoms: _133  and  _134
REMARK   60  A    between atoms: _133  and  _136
REMARK   61  A    between atoms: _136  and  _137
REMARK   62  A    between atoms: _140  and  _142
REMARK   63  A    between atoms: _142  and  _143
REMARK   64  A    between atoms: _145  and  _147
REMARK   65  A    between atoms: _147  and  _148
REMARK   66  A    between atoms: _150  and  _152
REMARK   67  A    between atoms: _152  and  _153
REMARK   68  A    between atoms: _152  and  _155
REMARK   69  A    between atoms: _155  and  _156
REMARK   70  A    between atoms: _159  and  _161
REMARK   71  A    between atoms: _161  and  _162
REMARK   72  A    between atoms: _164  and  _166
REMARK   73  A    between atoms: _166  and  _167
REMARK   74  A    between atoms: _169  and  _171
REMARK   75  A    between atoms: _171  and  _172
REMARK   76  A    between atoms: _171  and  _174
REMARK   77  A    between atoms: _174  and  _175
REMARK   78  A    between atoms: _181  and  _183
REMARK   79  A    between atoms: _183  and  _184
REMARK   80  A    between atoms: _183  and  _186
REMARK   81  A    between atoms: _186  and  _187
REMARK   82  A    between atoms: _190  and  _192
REMARK   83  A    between atoms: _192  and  _193
REMARK   84  A    between atoms: _192  and  _195
REMARK   85  A    between atoms: _198  and  _200
REMARK   86  A    between atoms: _200  and  _201
REMARK   87  A    between atoms: _200  and  _203
REMARK   88  A    between atoms: _203  and  _204
REMARK   89  A    between atoms: _207  and  _209
REMARK   90  A    between atoms: _209  and  _210
REMARK   91  A    between atoms: _209  and  _212
REMARK   92  A    between atoms: _212  and  _213
REMARK   93  A    between atoms: _217  and  _218
REMARK   94  A    between atoms: _223  and  _225
REMARK   95  A    between atoms: _225  and  _226
REMARK   96  A    between atoms: _225  and  _228
REMARK   97  A    between atoms: _231  and  _233
REMARK   98  A    between atoms: _233  and  _234
REMARK   99  A    between atoms: _233  and  _236
REMARK  100  A    between atoms: _236  and  _237
REMARK  101  A    between atoms: _242  and  _244
REMARK  102  A    between atoms: _244  and  _245
REMARK  103  A    between atoms: _244  and  _247
REMARK  104  A    between atoms: _247  and  _248
REMARK  105  A    between atoms: _251  and  _253
REMARK  106  A    between atoms: _253  and  _254
REMARK  107  A    between atoms: _253  and  _256
REMARK  108  A    between atoms: _256  and  _257
REMARK  109  A    between atoms: _260  and  _262
REMARK  110  A    between atoms: _262  and  _263
REMARK  111  A    between atoms: _265  and  _267
REMARK  112  A    between atoms: _267  and  _268
REMARK  113  A    between atoms: _267  and  _270
REMARK  114  A    between atoms: _270  and  _271
REMARK  115  A    between atoms: _271  and  _272
REMARK  116  A    between atoms: _272  and  _273
REMARK  117  A    between atoms: _282  and  _284
REMARK  118  A    between atoms: _284  and  _285
REMARK  119  A    between atoms: _284  and  _287
REMARK  120  A    between atoms: _287  and  _288
REMARK  121  A    between atoms: _293  and  _295
REMARK  122  A    between atoms: _295  and  _296
REMARK  123  A    between atoms: _295  and  _298
REMARK  124  A    between atoms: _298  and  _299
REMARK  125  A    between atoms: _299  and  _300
REMARK  126  A    between atoms: _300  and  _301
REMARK  127  A    between atoms: _311  and  _312
REMARK  128  A    between atoms: _317  and  _319
REMARK  129  A    between atoms: _319  and  _320
REMARK  130  A    between atoms: _319  and  _322
REMARK  131  A    between atoms: _322  and  _323
REMARK  132  A    between atoms: _326  and  _328
REMARK  133  A    between atoms: _328  and  _329
REMARK  134  A    between atoms: _328  and  _331
REMARK  135  A    between atoms: _331  and  _332
REMARK  136  A    between atoms: _335  and  _337
REMARK  137  A    between atoms: _337  and  _338
REMARK  138  A    between atoms: _337  and  _340
REMARK  139  A    between atoms: _340  and  _341
REMARK  140  A    between atoms: _344  and  _346
REMARK  141  A    between atoms: _346  and  _347
REMARK  142  A    between atoms: _346  and  _349
REMARK  143  A    between atoms: _349  and  _350
REMARK  144  A    between atoms: _353  and  _355
REMARK  145  A    between atoms: _355  and  _356
REMARK  146  A    between atoms: _355  and  _358
REMARK  147  A    between atoms: _358  and  _359
REMARK  148  A    between atoms: _362  and  _364
REMARK  149  A    between atoms: _364  and  _365
REMARK  150  A    between atoms: _367  and  _369
REMARK  151  A    between atoms: _369  and  _370
REMARK  152  A    between atoms: _373  and  _375
REMARK  153  A    between atoms: _375  and  _376
REMARK  154  A    between atoms: _375  and  _378
REMARK  155  A    between atoms: _378  and  _379
REMARK  156  A    between atoms: _382  and  _384
REMARK  157  A    between atoms: _384  and  _385
REMARK  158  A    between atoms: _384  and  _387
REMARK  159  A    between atoms: _387  and  _388
REMARK  160  A    between atoms: _391  and  _393
REMARK  161  A    between atoms: _393  and  _394
REMARK  162  A    between atoms: _393  and  _396
REMARK  163  A    between atoms: _396  and  _397
REMARK  164  A    between atoms: _400  and  _402
REMARK  165  A    between atoms: _402  and  _403
REMARK  166  A    between atoms: _402  and  _405
REMARK  167  A    between atoms: _408  and  _410
REMARK  168  A    between atoms: _410  and  _411
REMARK  169  A    between atoms: _410  and  _413
REMARK  170  A    between atoms: _413  and  _414
REMARK  171  A    between atoms: _417  and  _419
REMARK  172  A    between atoms: _419  and  _420
REMARK  173  A    between atoms: _422  and  _424
REMARK  174  A    between atoms: _424  and  _425
REMARK  175  A    between atoms: _429  and  _430
REMARK  176  A    between atoms: _429  and  _432
REMARK  177  A    between atoms: _432  and  _433
REMARK  178  A    between atoms: _436  and  _438
REMARK  179  A    between atoms: _438  and  _439
REMARK  180  A    between atoms: _441  and  _443
REMARK  181  A    between atoms: _443  and  _444
REMARK  182  A    between atoms: _446  and  _448
REMARK  183  A    between atoms: _448  and  _449
REMARK  184  A    between atoms: _448  and  _451
REMARK  185  A    between atoms: _451  and  _452
REMARK  186  A    between atoms: _458  and  _460
REMARK  187  A    between atoms: _460  and  _461
REMARK  188  A    between atoms: _460  and  _463
REMARK  189  A    between atoms: _463  and  _464
REMARK  190  A    between atoms: _467  and  _469
REMARK  191  A    between atoms: _469  and  _470
REMARK  192  A    between atoms: _469  and  _472
REMARK  193  A    between atoms: _472  and  _473
REMARK  194  A    between atoms: _476  and  _478
REMARK  195  A    between atoms: _478  and  _479
REMARK  196  A    between atoms: _478  and  _481
REMARK  197  A    between atoms: _481  and  _482
REMARK  198  A    between atoms: _486  and  _487
REMARK  199  A    between atoms: _492  and  _494
REMARK  200  A    between atoms: _494  and  _495
REMARK  201  A    between atoms: _494  and  _497
REMARK  202  A    between atoms: _500  and  _502
REMARK  203  A    between atoms: _502  and  _503
REMARK  204  A    between atoms: _502  and  _505
REMARK  205  A    between atoms: _505  and  _506
REMARK  206  A    between atoms: _511  and  _513
REMARK  207  A    between atoms: _513  and  _514
REMARK  208  A    between atoms: _513  and  _516
REMARK  209  A    between atoms: _516  and  _517
REMARK  210  A    between atoms: _520  and  _522
REMARK  211  A    between atoms: _522  and  _523
REMARK  212  A    between atoms: _525  and  _527
REMARK  213  A    between atoms: _527  and  _528
REMARK  214  A    between atoms: _527  and  _530
REMARK  215  A    between atoms: _530  and  _531
REMARK  216  A    between atoms: _531  and  _532
REMARK  217  A    between atoms: _532  and  _533
REMARK                            x       y       z     vdW  Elec       q    Type
REMARK                         _______ _______ _______ _____ _____    ______ ____
ROOT
ATOM      1  O   HOH     1      20.391  20.992   6.907  0.00  0.00    +0.000 OA
ENDROOT
TORSDOF 0
