REMARK  Name = ../refined-set-2016/2qrl/2qrl_pocket.pdb
REMARK  112 active torsions:
REMARK  status: ('A' for Active; 'I' for Inactive)
REMARK    1  A    between atoms: _1  and  _3
REMARK    2  A    between atoms: _3  and  _4
REMARK    3  A    between atoms: _3  and  _6
REMARK    4  A    between atoms: _6  and  _7
REMARK    5  A    between atoms: _7  and  _8
REMARK    6  A    between atoms: _8  and  _9
REMARK    7  A    between atoms: _9  and  _10
REMARK    8  A    between atoms: _14  and  _16
REMARK    9  A    between atoms: _16  and  _17
REMARK   10  A    between atoms: _16  and  _19
REMARK   11  A    between atoms: _19  and  _20
REMARK   12  A    between atoms: _20  and  _21
REMARK   13  A    between atoms: _24  and  _26
REMARK   14  A    between atoms: _26  and  _27
REMARK   15  A    between atoms: _26  and  _29
REMARK   16  A    between atoms: _29  and  _30
REMARK   17  A    between atoms: _30  and  _31
REMARK   18  A    between atoms: _31  and  _32
REMARK   19  A    between atoms: _41  and  _43
REMARK   20  A    between atoms: _43  and  _44
REMARK   21  A    between atoms: _43  and  _46
REMARK   22  A    between atoms: _46  and  _47
REMARK   23  A    between atoms: _50  and  _52
REMARK   24  A    between atoms: _52  and  _53
REMARK   25  A    between atoms: _52  and  _55
REMARK   26  A    between atoms: _55  and  _56
REMARK   27  A    between atoms: _56  and  _57
REMARK   28  A    between atoms: _57  and  _58
REMARK   29  A    between atoms: _58  and  _59
REMARK   30  A    between atoms: _63  and  _65
REMARK   31  A    between atoms: _65  and  _66
REMARK   32  A    between atoms: _65  and  _68
REMARK   33  A    between atoms: _68  and  _69
REMARK   34  A    between atoms: _69  and  _70
REMARK   35  A    between atoms: _73  and  _75
REMARK   36  A    between atoms: _75  and  _76
REMARK   37  A    between atoms: _75  and  _78
REMARK   38  A    between atoms: _78  and  _79
REMARK   39  A    between atoms: _85  and  _87
REMARK   40  A    between atoms: _87  and  _88
REMARK   41  A    between atoms: _91  and  _93
REMARK   42  A    between atoms: _93  and  _94
REMARK   43  A    between atoms: _93  and  _96
REMARK   44  A    between atoms: _96  and  _97
REMARK   45  A    between atoms: _102  and  _104
REMARK   46  A    between atoms: _104  and  _105
REMARK   47  A    between atoms: _104  and  _107
REMARK   48  A    between atoms: _107  and  _108
REMARK   49  A    between atoms: _108  and  _109
REMARK   50  A    between atoms: _109  and  _110
REMARK   51  A    between atoms: _110  and  _111
REMARK   52  A    between atoms: _115  and  _117
REMARK   53  A    between atoms: _117  and  _118
REMARK   54  A    between atoms: _117  and  _120
REMARK   55  A    between atoms: _120  and  _121
REMARK   56  A    between atoms: _121  and  _122
REMARK   57  A    between atoms: _127  and  _129
REMARK   58  A    between atoms: _129  and  _130
REMARK   59  A    between atoms: _129  and  _132
REMARK   60  A    between atoms: _132  and  _133
REMARK   61  A    between atoms: _136  and  _138
REMARK   62  A    between atoms: _138  and  _139
REMARK   63  A    between atoms: _138  and  _141
REMARK   64  A    between atoms: _141  and  _142
REMARK   65  A    between atoms: _145  and  _147
REMARK   66  A    between atoms: _147  and  _148
REMARK   67  A    between atoms: _147  and  _150
REMARK   68  A    between atoms: _150  and  _151
REMARK   69  A    between atoms: _151  and  _152
REMARK   70  A    between atoms: _155  and  _157
REMARK   71  A    between atoms: _157  and  _158
REMARK   72  A    between atoms: _157  and  _160
REMARK   73  A    between atoms: _160  and  _161
REMARK   74  A    between atoms: _167  and  _169
REMARK   75  A    between atoms: _169  and  _170
REMARK   76  A    between atoms: _169  and  _172
REMARK   77  A    between atoms: _172  and  _173
REMARK   78  A    between atoms: _173  and  _174
REMARK   79  A    between atoms: _174  and  _175
REMARK   80  A    between atoms: _184  and  _186
REMARK   81  A    between atoms: _186  and  _187
REMARK   82  A    between atoms: _190  and  _192
REMARK   83  A    between atoms: _192  and  _193
REMARK   84  A    between atoms: _196  and  _198
REMARK   85  A    between atoms: _198  and  _199
REMARK   86  A    between atoms: _198  and  _201
REMARK   87  A    between atoms: _201  and  _202
REMARK   88  A    between atoms: _208  and  _210
REMARK   89  A    between atoms: _210  and  _211
REMARK   90  A    between atoms: _213  and  _215
REMARK   91  A    between atoms: _215  and  _216
REMARK   92  A    between atoms: _215  and  _218
REMARK   93  A    between atoms: _218  and  _219
REMARK   94  A    between atoms: _222  and  _224
REMARK   95  A    between atoms: _224  and  _225
REMARK   96  A    between atoms: _224  and  _227
REMARK   97  A    between atoms: _227  and  _228
REMARK   98  A    between atoms: _233  and  _235
REMARK   99  A    between atoms: _235  and  _236
REMARK  100  A    between atoms: _235  and  _238
REMARK  101  A    between atoms: _238  and  _239
REMARK  102  A    between atoms: _243  and  _244
REMARK  103  A    between atoms: _249  and  _251
REMARK  104  A    between atoms: _251  and  _252
REMARK  105  A    between atoms: _251  and  _254
REMARK  106  A    between atoms: _254  and  _255
REMARK  107  A    between atoms: _257  and  _259
REMARK  108  A    between atoms: _259  and  _260
REMARK  109  A    between atoms: _263  and  _265
REMARK  110  A    between atoms: _265  and  _266
REMARK  111  A    between atoms: _265  and  _268
REMARK  112  A    between atoms: _268  and  _269
REMARK                            x       y       z     vdW  Elec       q    Type
REMARK                         _______ _______ _______ _____ _____    ______ ____
ROOT
ATOM      1  CG  LYS A   1      42.856  48.640   9.513  0.00  0.00    -0.000 C 
ENDROOT
BRANCH   1   2
ATOM      2  CB  LYS A   1      43.870  49.002   8.411  0.00  0.00    +0.025 C 
BRANCH   2   3
ATOM      3  CA  LYS A   1      43.641  48.265   7.081  0.00  0.00    +0.133 C 
BRANCH   3   4
ATOM      4  N   LYS A   1      44.657  48.628   6.059  0.00  0.00    -0.239 NA
ATOM      5  H   LYS A   1      45.415  49.296   6.308  0.00  0.00    +0.142 HD
ENDBRANCH   3   4
BRANCH   3   6
ATOM      6  C   LYS A   1      42.247  48.581   6.515  0.00  0.00    +0.224 C 
ATOM      7  O   LYS A   1      41.986  49.706   6.097  0.00  0.00    -0.287 OA
ENDBRANCH   3   6
ENDBRANCH   2   3
ENDBRANCH   1   2
BRANCH   1   8
ATOM      8  CD  LYS A   1      43.065  49.483  10.768  0.00  0.00    -0.024 C 
BRANCH   8   9
ATOM      9  CE  LYS A   1      42.169  49.030  11.922  0.00  0.00    -0.086 C 
BRANCH   9  10
ATOM     10  NZ  LYS A   1      42.618  47.740  12.529  0.00  0.00    +0.380 N 
ATOM     11  HZ1 LYS A   1      41.976  47.481  13.305  0.00  0.00    -0.089 HD
ATOM     12  HZ2 LYS A   1      43.584  47.850  12.899  0.00  0.00    -0.089 HD
ATOM     13  HZ3 LYS A   1      42.606  46.994  11.804  0.00  0.00    -0.089 HD
ENDBRANCH   9  10
ENDBRANCH   8   9
ENDBRANCH   1   8
TORSDOF 7
REMARK  Name = ../refined-set-2016/2qrl/2qrl_pocket.pdb
REMARK  112 active torsions:
REMARK  status: ('A' for Active; 'I' for Inactive)
REMARK    1  A    between atoms: _1  and  _3
REMARK    2  A    between atoms: _3  and  _4
REMARK    3  A    between atoms: _3  and  _6
REMARK    4  A    between atoms: _6  and  _7
REMARK    5  A    between atoms: _7  and  _8
REMARK    6  A    between atoms: _8  and  _9
REMARK    7  A    between atoms: _9  and  _10
REMARK    8  A    between atoms: _14  and  _16
REMARK    9  A    between atoms: _16  and  _17
REMARK   10  A    between atoms: _16  and  _19
REMARK   11  A    between atoms: _19  and  _20
REMARK   12  A    between atoms: _20  and  _21
REMARK   13  A    between atoms: _24  and  _26
REMARK   14  A    between atoms: _26  and  _27
REMARK   15  A    between atoms: _26  and  _29
REMARK   16  A    between atoms: _29  and  _30
REMARK   17  A    between atoms: _30  and  _31
REMARK   18  A    between atoms: _31  and  _32
REMARK   19  A    between atoms: _41  and  _43
REMARK   20  A    between atoms: _43  and  _44
REMARK   21  A    between atoms: _43  and  _46
REMARK   22  A    between atoms: _46  and  _47
REMARK   23  A    between atoms: _50  and  _52
REMARK   24  A    between atoms: _52  and  _53
REMARK   25  A    between atoms: _52  and  _55
REMARK   26  A    between atoms: _55  and  _56
REMARK   27  A    between atoms: _56  and  _57
REMARK   28  A    between atoms: _57  and  _58
REMARK   29  A    between atoms: _58  and  _59
REMARK   30  A    between atoms: _63  and  _65
REMARK   31  A    between atoms: _65  and  _66
REMARK   32  A    between atoms: _65  and  _68
REMARK   33  A    between atoms: _68  and  _69
REMARK   34  A    between atoms: _69  and  _70
REMARK   35  A    between atoms: _73  and  _75
REMARK   36  A    between atoms: _75  and  _76
REMARK   37  A    between atoms: _75  and  _78
REMARK   38  A    between atoms: _78  and  _79
REMARK   39  A    between atoms: _85  and  _87
REMARK   40  A    between atoms: _87  and  _88
REMARK   41  A    between atoms: _91  and  _93
REMARK   42  A    between atoms: _93  and  _94
REMARK   43  A    between atoms: _93  and  _96
REMARK   44  A    between atoms: _96  and  _97
REMARK   45  A    between atoms: _102  and  _104
REMARK   46  A    between atoms: _104  and  _105
REMARK   47  A    between atoms: _104  and  _107
REMARK   48  A    between atoms: _107  and  _108
REMARK   49  A    between atoms: _108  and  _109
REMARK   50  A    between atoms: _109  and  _110
REMARK   51  A    between atoms: _110  and  _111
REMARK   52  A    between atoms: _115  and  _117
REMARK   53  A    between atoms: _117  and  _118
REMARK   54  A    between atoms: _117  and  _120
REMARK   55  A    between atoms: _120  and  _121
REMARK   56  A    between atoms: _121  and  _122
REMARK   57  A    between atoms: _127  and  _129
REMARK   58  A    between atoms: _129  and  _130
REMARK   59  A    between atoms: _129  and  _132
REMARK   60  A    between atoms: _132  and  _133
REMARK   61  A    between atoms: _136  and  _138
REMARK   62  A    between atoms: _138  and  _139
REMARK   63  A    between atoms: _138  and  _141
REMARK   64  A    between atoms: _141  and  _142
REMARK   65  A    between atoms: _145  and  _147
REMARK   66  A    between atoms: _147  and  _148
REMARK   67  A    between atoms: _147  and  _150
REMARK   68  A    between atoms: _150  and  _151
REMARK   69  A    between atoms: _151  and  _152
REMARK   70  A    between atoms: _155  and  _157
REMARK   71  A    between atoms: _157  and  _158
REMARK   72  A    between atoms: _157  and  _160
REMARK   73  A    between atoms: _160  and  _161
REMARK   74  A    between atoms: _167  and  _169
REMARK   75  A    between atoms: _169  and  _170
REMARK   76  A    between atoms: _169  and  _172
REMARK   77  A    between atoms: _172  and  _173
REMARK   78  A    between atoms: _173  and  _174
REMARK   79  A    between atoms: _174  and  _175
REMARK   80  A    between atoms: _184  and  _186
REMARK   81  A    between atoms: _186  and  _187
REMARK   82  A    between atoms: _190  and  _192
REMARK   83  A    between atoms: _192  and  _193
REMARK   84  A    between atoms: _196  and  _198
REMARK   85  A    between atoms: _198  and  _199
REMARK   86  A    between atoms: _198  and  _201
REMARK   87  A    between atoms: _201  and  _202
REMARK   88  A    between atoms: _208  and  _210
REMARK   89  A    between atoms: _210  and  _211
REMARK   90  A    between atoms: _213  and  _215
REMARK   91  A    between atoms: _215  and  _216
REMARK   92  A    between atoms: _215  and  _218
REMARK   93  A    between atoms: _218  and  _219
REMARK   94  A    between atoms: _222  and  _224
REMARK   95  A    between atoms: _224  and  _225
REMARK   96  A    between atoms: _224  and  _227
REMARK   97  A    between atoms: _227  and  _228
REMARK   98  A    between atoms: _233  and  _235
REMARK   99  A    between atoms: _235  and  _236
REMARK  100  A    between atoms: _235  and  _238
REMARK  101  A    between atoms: _238  and  _239
REMARK  102  A    between atoms: _243  and  _244
REMARK  103  A    between atoms: _249  and  _251
REMARK  104  A    between atoms: _251  and  _252
REMARK  105  A    between atoms: _251  and  _254
REMARK  106  A    between atoms: _254  and  _255
REMARK  107  A    between atoms: _257  and  _259
REMARK  108  A    between atoms: _259  and  _260
REMARK  109  A    between atoms: _263  and  _265
REMARK  110  A    between atoms: _265  and  _266
REMARK  111  A    between atoms: _265  and  _268
REMARK  112  A    between atoms: _268  and  _269
REMARK                            x       y       z     vdW  Elec       q    Type
REMARK                         _______ _______ _______ _____ _____    ______ ____
ROOT
ATOM      1  CA  GLU A   1      41.186  53.106   7.399  0.00  0.00    +0.134 C 
ENDROOT
BRANCH   1   2
ATOM      2  N   GLU A   1      40.324  52.075   6.802  0.00  0.00    -0.239 NA
ATOM      3  H   GLU A   1      40.735  51.184   6.457  0.00  0.00    +0.142 HD
ENDBRANCH   1   2
BRANCH   1   4
ATOM      4  C   GLU A   1      41.374  54.277   6.414  0.00  0.00    +0.224 C 
ATOM      5  O   GLU A   1      42.075  54.121   5.388  0.00  0.00    -0.287 OA
ENDBRANCH   1   4
BRANCH   1   6
ATOM      6  CB  GLU A   1      42.536  52.524   7.838  0.00  0.00    +0.037 C 
BRANCH   6   7
ATOM      7  CG  GLU A   1      43.408  53.569   8.529  0.00  0.00    +0.116 C 
BRANCH   7   8
ATOM      8  CD  GLU A   1      42.696  54.248   9.700  0.00  0.00    +0.365 C 
ATOM      9  OE2 GLU A   1      42.493  53.568  10.737  0.00  0.00    -0.246 OA
ATOM     10  OE1 GLU A   1      42.351  55.444   9.592  0.00  0.00    -0.246 OA
ENDBRANCH   7   8
ENDBRANCH   6   7
ENDBRANCH   1   6
TORSDOF 5
REMARK  Name = ../refined-set-2016/2qrl/2qrl_pocket.pdb
REMARK  112 active torsions:
REMARK  status: ('A' for Active; 'I' for Inactive)
REMARK    1  A    between atoms: _1  and  _3
REMARK    2  A    between atoms: _3  and  _4
REMARK    3  A    between atoms: _3  and  _6
REMARK    4  A    between atoms: _6  and  _7
REMARK    5  A    between atoms: _7  and  _8
REMARK    6  A    between atoms: _8  and  _9
REMARK    7  A    between atoms: _9  and  _10
REMARK    8  A    between atoms: _14  and  _16
REMARK    9  A    between atoms: _16  and  _17
REMARK   10  A    between atoms: _16  and  _19
REMARK   11  A    between atoms: _19  and  _20
REMARK   12  A    between atoms: _20  and  _21
REMARK   13  A    between atoms: _24  and  _26
REMARK   14  A    between atoms: _26  and  _27
REMARK   15  A    between atoms: _26  and  _29
REMARK   16  A    between atoms: _29  and  _30
REMARK   17  A    between atoms: _30  and  _31
REMARK   18  A    between atoms: _31  and  _32
REMARK   19  A    between atoms: _41  and  _43
REMARK   20  A    between atoms: _43  and  _44
REMARK   21  A    between atoms: _43  and  _46
REMARK   22  A    between atoms: _46  and  _47
REMARK   23  A    between atoms: _50  and  _52
REMARK   24  A    between atoms: _52  and  _53
REMARK   25  A    between atoms: _52  and  _55
REMARK   26  A    between atoms: _55  and  _56
REMARK   27  A    between atoms: _56  and  _57
REMARK   28  A    between atoms: _57  and  _58
REMARK   29  A    between atoms: _58  and  _59
REMARK   30  A    between atoms: _63  and  _65
REMARK   31  A    between atoms: _65  and  _66
REMARK   32  A    between atoms: _65  and  _68
REMARK   33  A    between atoms: _68  and  _69
REMARK   34  A    between atoms: _69  and  _70
REMARK   35  A    between atoms: _73  and  _75
REMARK   36  A    between atoms: _75  and  _76
REMARK   37  A    between atoms: _75  and  _78
REMARK   38  A    between atoms: _78  and  _79
REMARK   39  A    between atoms: _85  and  _87
REMARK   40  A    between atoms: _87  and  _88
REMARK   41  A    between atoms: _91  and  _93
REMARK   42  A    between atoms: _93  and  _94
REMARK   43  A    between atoms: _93  and  _96
REMARK   44  A    between atoms: _96  and  _97
REMARK   45  A    between atoms: _102  and  _104
REMARK   46  A    between atoms: _104  and  _105
REMARK   47  A    between atoms: _104  and  _107
REMARK   48  A    between atoms: _107  and  _108
REMARK   49  A    between atoms: _108  and  _109
REMARK   50  A    between atoms: _109  and  _110
REMARK   51  A    between atoms: _110  and  _111
REMARK   52  A    between atoms: _115  and  _117
REMARK   53  A    between atoms: _117  and  _118
REMARK   54  A    between atoms: _117  and  _120
REMARK   55  A    between atoms: _120  and  _121
REMARK   56  A    between atoms: _121  and  _122
REMARK   57  A    between atoms: _127  and  _129
REMARK   58  A    between atoms: _129  and  _130
REMARK   59  A    between atoms: _129  and  _132
REMARK   60  A    between atoms: _132  and  _133
REMARK   61  A    between atoms: _136  and  _138
REMARK   62  A    between atoms: _138  and  _139
REMARK   63  A    between atoms: _138  and  _141
REMARK   64  A    between atoms: _141  and  _142
REMARK   65  A    between atoms: _145  and  _147
REMARK   66  A    between atoms: _147  and  _148
REMARK   67  A    between atoms: _147  and  _150
REMARK   68  A    between atoms: _150  and  _151
REMARK   69  A    between atoms: _151  and  _152
REMARK   70  A    between atoms: _155  and  _157
REMARK   71  A    between atoms: _157  and  _158
REMARK   72  A    between atoms: _157  and  _160
REMARK   73  A    between atoms: _160  and  _161
REMARK   74  A    between atoms: _167  and  _169
REMARK   75  A    between atoms: _169  and  _170
REMARK   76  A    between atoms: _169  and  _172
REMARK   77  A    between atoms: _172  and  _173
REMARK   78  A    between atoms: _173  and  _174
REMARK   79  A    between atoms: _174  and  _175
REMARK   80  A    between atoms: _184  and  _186
REMARK   81  A    between atoms: _186  and  _187
REMARK   82  A    between atoms: _190  and  _192
REMARK   83  A    between atoms: _192  and  _193
REMARK   84  A    between atoms: _196  and  _198
REMARK   85  A    between atoms: _198  and  _199
REMARK   86  A    between atoms: _198  and  _201
REMARK   87  A    between atoms: _201  and  _202
REMARK   88  A    between atoms: _208  and  _210
REMARK   89  A    between atoms: _210  and  _211
REMARK   90  A    between atoms: _213  and  _215
REMARK   91  A    between atoms: _215  and  _216
REMARK   92  A    between atoms: _215  and  _218
REMARK   93  A    between atoms: _218  and  _219
REMARK   94  A    between atoms: _222  and  _224
REMARK   95  A    between atoms: _224  and  _225
REMARK   96  A    between atoms: _224  and  _227
REMARK   97  A    between atoms: _227  and  _228
REMARK   98  A    between atoms: _233  and  _235
REMARK   99  A    between atoms: _235  and  _236
REMARK  100  A    between atoms: _235  and  _238
REMARK  101  A    between atoms: _238  and  _239
REMARK  102  A    between atoms: _243  and  _244
REMARK  103  A    between atoms: _249  and  _251
REMARK  104  A    between atoms: _251  and  _252
REMARK  105  A    between atoms: _251  and  _254
REMARK  106  A    between atoms: _254  and  _255
REMARK  107  A    between atoms: _257  and  _259
REMARK  108  A    between atoms: _259  and  _260
REMARK  109  A    between atoms: _263  and  _265
REMARK  110  A    between atoms: _265  and  _266
REMARK  111  A    between atoms: _265  and  _268
REMARK  112  A    between atoms: _268  and  _269
REMARK                            x       y       z     vdW  Elec       q    Type
REMARK                         _______ _______ _______ _____ _____    ______ ____
ROOT
ATOM      1  NE  ARG A   1      42.202  56.955  11.967  0.00  0.00    -0.265 N 
ATOM      2  CZ  ARG A   1      42.666  56.377  13.070  0.00  0.00    +0.342 C 
ATOM      3  NH2 ARG A   1      42.945  57.115  14.148  0.00  0.00    -0.292 N 
ATOM      4 HH21 ARG A   1      43.308  56.660  15.010  0.00  0.00    +0.255 HD
ATOM      5 HH22 ARG A   1      42.799  58.144  14.125  0.00  0.00    +0.255 HD
ATOM      6  NH1 ARG A   1      42.861  55.068  13.079  0.00  0.00    -0.292 N 
ATOM      7 HH11 ARG A   1      43.224  54.602  13.935  0.00  0.00    +0.255 HD
ATOM      8 HH12 ARG A   1      42.652  54.505  12.230  0.00  0.00    +0.255 HD
ATOM      9  HE  ARG A   1      41.976  56.345  11.155  0.00  0.00    +0.259 HD
ENDROOT
BRANCH   1  10
ATOM     10  CD  ARG A   1      41.991  58.384  11.824  0.00  0.00    +0.174 C 
BRANCH  10  11
ATOM     11  CG  ARG A   1      41.870  58.754  10.337  0.00  0.00    +0.045 C 
BRANCH  11  12
ATOM     12  CB  ARG A   1      43.190  58.526   9.570  0.00  0.00    +0.029 C 
BRANCH  12  13
ATOM     13  CA  ARG A   1      43.053  58.646   8.053  0.00  0.00    +0.133 C 
BRANCH  13  14
ATOM     14  N   ARG A   1      42.177  57.615   7.503  0.00  0.00    -0.239 NA
ATOM     15  H   ARG A   1      42.051  56.723   8.022  0.00  0.00    +0.142 HD
ENDBRANCH  13  14
BRANCH  13  16
ATOM     16  C   ARG A   1      44.433  58.511   7.417  0.00  0.00    +0.224 C 
ATOM     17  O   ARG A   1      44.745  57.498   6.774  0.00  0.00    -0.287 OA
ENDBRANCH  13  16
ENDBRANCH  12  13
ENDBRANCH  11  12
ENDBRANCH  10  11
ENDBRANCH   1  10
TORSDOF 6
REMARK  Name = ../refined-set-2016/2qrl/2qrl_pocket.pdb
REMARK  112 active torsions:
REMARK  status: ('A' for Active; 'I' for Inactive)
REMARK    1  A    between atoms: _1  and  _3
REMARK    2  A    between atoms: _3  and  _4
REMARK    3  A    between atoms: _3  and  _6
REMARK    4  A    between atoms: _6  and  _7
REMARK    5  A    between atoms: _7  and  _8
REMARK    6  A    between atoms: _8  and  _9
REMARK    7  A    between atoms: _9  and  _10
REMARK    8  A    between atoms: _14  and  _16
REMARK    9  A    between atoms: _16  and  _17
REMARK   10  A    between atoms: _16  and  _19
REMARK   11  A    between atoms: _19  and  _20
REMARK   12  A    between atoms: _20  and  _21
REMARK   13  A    between atoms: _24  and  _26
REMARK   14  A    between atoms: _26  and  _27
REMARK   15  A    between atoms: _26  and  _29
REMARK   16  A    between atoms: _29  and  _30
REMARK   17  A    between atoms: _30  and  _31
REMARK   18  A    between atoms: _31  and  _32
REMARK   19  A    between atoms: _41  and  _43
REMARK   20  A    between atoms: _43  and  _44
REMARK   21  A    between atoms: _43  and  _46
REMARK   22  A    between atoms: _46  and  _47
REMARK   23  A    between atoms: _50  and  _52
REMARK   24  A    between atoms: _52  and  _53
REMARK   25  A    between atoms: _52  and  _55
REMARK   26  A    between atoms: _55  and  _56
REMARK   27  A    between atoms: _56  and  _57
REMARK   28  A    between atoms: _57  and  _58
REMARK   29  A    between atoms: _58  and  _59
REMARK   30  A    between atoms: _63  and  _65
REMARK   31  A    between atoms: _65  and  _66
REMARK   32  A    between atoms: _65  and  _68
REMARK   33  A    between atoms: _68  and  _69
REMARK   34  A    between atoms: _69  and  _70
REMARK   35  A    between atoms: _73  and  _75
REMARK   36  A    between atoms: _75  and  _76
REMARK   37  A    between atoms: _75  and  _78
REMARK   38  A    between atoms: _78  and  _79
REMARK   39  A    between atoms: _85  and  _87
REMARK   40  A    between atoms: _87  and  _88
REMARK   41  A    between atoms: _91  and  _93
REMARK   42  A    between atoms: _93  and  _94
REMARK   43  A    between atoms: _93  and  _96
REMARK   44  A    between atoms: _96  and  _97
REMARK   45  A    between atoms: _102  and  _104
REMARK   46  A    between atoms: _104  and  _105
REMARK   47  A    between atoms: _104  and  _107
REMARK   48  A    between atoms: _107  and  _108
REMARK   49  A    between atoms: _108  and  _109
REMARK   50  A    between atoms: _109  and  _110
REMARK   51  A    between atoms: _110  and  _111
REMARK   52  A    between atoms: _115  and  _117
REMARK   53  A    between atoms: _117  and  _118
REMARK   54  A    between atoms: _117  and  _120
REMARK   55  A    between atoms: _120  and  _121
REMARK   56  A    between atoms: _121  and  _122
REMARK   57  A    between atoms: _127  and  _129
REMARK   58  A    between atoms: _129  and  _130
REMARK   59  A    between atoms: _129  and  _132
REMARK   60  A    between atoms: _132  and  _133
REMARK   61  A    between atoms: _136  and  _138
REMARK   62  A    between atoms: _138  and  _139
REMARK   63  A    between atoms: _138  and  _141
REMARK   64  A    between atoms: _141  and  _142
REMARK   65  A    between atoms: _145  and  _147
REMARK   66  A    between atoms: _147  and  _148
REMARK   67  A    between atoms: _147  and  _150
REMARK   68  A    between atoms: _150  and  _151
REMARK   69  A    between atoms: _151  and  _152
REMARK   70  A    between atoms: _155  and  _157
REMARK   71  A    between atoms: _157  and  _158
REMARK   72  A    between atoms: _157  and  _160
REMARK   73  A    between atoms: _160  and  _161
REMARK   74  A    between atoms: _167  and  _169
REMARK   75  A    between atoms: _169  and  _170
REMARK   76  A    between atoms: _169  and  _172
REMARK   77  A    between atoms: _172  and  _173
REMARK   78  A    between atoms: _173  and  _174
REMARK   79  A    between atoms: _174  and  _175
REMARK   80  A    between atoms: _184  and  _186
REMARK   81  A    between atoms: _186  and  _187
REMARK   82  A    between atoms: _190  and  _192
REMARK   83  A    between atoms: _192  and  _193
REMARK   84  A    between atoms: _196  and  _198
REMARK   85  A    between atoms: _198  and  _199
REMARK   86  A    between atoms: _198  and  _201
REMARK   87  A    between atoms: _201  and  _202
REMARK   88  A    between atoms: _208  and  _210
REMARK   89  A    between atoms: _210  and  _211
REMARK   90  A    between atoms: _213  and  _215
REMARK   91  A    between atoms: _215  and  _216
REMARK   92  A    between atoms: _215  and  _218
REMARK   93  A    between atoms: _218  and  _219
REMARK   94  A    between atoms: _222  and  _224
REMARK   95  A    between atoms: _224  and  _225
REMARK   96  A    between atoms: _224  and  _227
REMARK   97  A    between atoms: _227  and  _228
REMARK   98  A    between atoms: _233  and  _235
REMARK   99  A    between atoms: _235  and  _236
REMARK  100  A    between atoms: _235  and  _238
REMARK  101  A    between atoms: _238  and  _239
REMARK  102  A    between atoms: _243  and  _244
REMARK  103  A    between atoms: _249  and  _251
REMARK  104  A    between atoms: _251  and  _252
REMARK  105  A    between atoms: _251  and  _254
REMARK  106  A    between atoms: _254  and  _255
REMARK  107  A    between atoms: _257  and  _259
REMARK  108  A    between atoms: _259  and  _260
REMARK  109  A    between atoms: _263  and  _265
REMARK  110  A    between atoms: _265  and  _266
REMARK  111  A    between atoms: _265  and  _268
REMARK  112  A    between atoms: _268  and  _269
REMARK                            x       y       z     vdW  Elec       q    Type
REMARK                         _______ _______ _______ _____ _____    ______ ____
ROOT
ATOM      1  CA  LYS A   2      48.071  51.505  10.792  0.00  0.00    +0.149 C 
ENDROOT
BRANCH   1   4
ATOM      2  C   LEU A   1      49.055  53.693  10.942  0.00  0.00    +0.238 C 
ATOM      3  O   LEU A   1      49.434  53.463  12.095  0.00  0.00    -0.274 OA
ATOM      4  N   LYS A   2      48.465  52.770  10.182  0.00  0.00    -0.297 N 
ATOM      5  H   LYS A   2      48.289  52.949   9.173  0.00  0.00    +0.150 HD
BRANCH   2   6
ATOM      6  CA  LEU A   1      49.251  55.079  10.338  0.00  0.00    +0.145 C 
BRANCH   6   7
ATOM      7  N   LEU A   1      49.918  54.990   9.055  0.00  0.00    -0.238 NA
ATOM      8  H   LEU A   1      49.375  54.800   8.189  0.00  0.00    +0.142 HD
ENDBRANCH   6   7
BRANCH   6   9
ATOM      9  CB  LEU A   1      47.922  55.818  10.185  0.00  0.00    +0.026 C 
BRANCH   9  10
ATOM     10  CG  LEU A   1      47.336  56.351  11.483  0.00  0.00    +0.002 C 
ATOM     11  CD2 LEU A   1      48.165  57.516  12.087  0.00  0.00    +0.000 C 
ATOM     12  CD1 LEU A   1      45.925  56.785  11.139  0.00  0.00    +0.000 C 
ENDBRANCH   9  10
ENDBRANCH   6   9
ENDBRANCH   2   6
ENDBRANCH   1   4
BRANCH   1  13
ATOM     13  C   LYS A   2      48.880  50.304  10.331  0.00  0.00    +0.241 C 
ATOM     14  N   GLU A   3      48.484  49.123  10.812  0.00  0.00    -0.298 N 
ATOM     15  H   GLU A   3      47.612  49.083  11.378  0.00  0.00    +0.150 HD
ATOM     16  O   LYS A   2      49.857  50.449   9.579  0.00  0.00    -0.273 OA
BRANCH  14  17
ATOM     17  CA  GLU A   3      49.220  47.888  10.578  0.00  0.00    +0.137 C 
BRANCH  17  18
ATOM     18  C   GLU A   3      49.296  47.483   9.106  0.00  0.00    +0.227 C 
ATOM     19  O   GLU A   3      48.447  47.838   8.281  0.00  0.00    -0.286 OA
ENDBRANCH  17  18
BRANCH  17  20
ATOM     20  CB  GLU A   3      48.626  46.749  11.423  0.00  0.00    +0.039 C 
BRANCH  20  21
ATOM     21  CG  GLU A   3      47.198  46.328  11.030  0.00  0.00    +0.116 C 
BRANCH  21  22
ATOM     22  CD  GLU A   3      46.069  47.143  11.693  0.00  0.00    +0.365 C 
ATOM     23  OE2 GLU A   3      46.334  48.131  12.437  0.00  0.00    -0.246 OA
ATOM     24  OE1 GLU A   3      44.891  46.758  11.464  0.00  0.00    -0.246 OA
ENDBRANCH  21  22
ENDBRANCH  20  21
ENDBRANCH  17  20
ENDBRANCH  14  17
ENDBRANCH   1  13
BRANCH   1  25
ATOM     25  CB  LYS A   2      46.552  51.277  10.653  0.00  0.00    +0.029 C 
BRANCH  25  26
ATOM     26  CG  LYS A   2      45.701  52.384  11.285  0.00  0.00    +0.000 C 
BRANCH  26  27
ATOM     27  CD  LYS A   2      45.857  52.413  12.807  0.00  0.00    -0.024 C 
BRANCH  27  28
ATOM     28  CE  LYS A   2      45.063  51.279  13.452  0.00  0.00    -0.086 C 
BRANCH  28  29
ATOM     29  NZ  LYS A   2      45.141  51.305  14.937  0.00  0.00    +0.380 N 
ATOM     30  HZ1 LYS A   2      44.586  50.516  15.326  0.00  0.00    -0.089 HD
ATOM     31  HZ2 LYS A   2      44.757  52.206  15.287  0.00  0.00    -0.089 HD
ATOM     32  HZ3 LYS A   2      46.134  51.211  15.232  0.00  0.00    -0.089 HD
ENDBRANCH  28  29
ENDBRANCH  27  28
ENDBRANCH  26  27
ENDBRANCH  25  26
ENDBRANCH   1  25
TORSDOF 16
REMARK  Name = ../refined-set-2016/2qrl/2qrl_pocket.pdb
REMARK  112 active torsions:
REMARK  status: ('A' for Active; 'I' for Inactive)
REMARK    1  A    between atoms: _1  and  _3
REMARK    2  A    between atoms: _3  and  _4
REMARK    3  A    between atoms: _3  and  _6
REMARK    4  A    between atoms: _6  and  _7
REMARK    5  A    between atoms: _7  and  _8
REMARK    6  A    between atoms: _8  and  _9
REMARK    7  A    between atoms: _9  and  _10
REMARK    8  A    between atoms: _14  and  _16
REMARK    9  A    between atoms: _16  and  _17
REMARK   10  A    between atoms: _16  and  _19
REMARK   11  A    between atoms: _19  and  _20
REMARK   12  A    between atoms: _20  and  _21
REMARK   13  A    between atoms: _24  and  _26
REMARK   14  A    between atoms: _26  and  _27
REMARK   15  A    between atoms: _26  and  _29
REMARK   16  A    between atoms: _29  and  _30
REMARK   17  A    between atoms: _30  and  _31
REMARK   18  A    between atoms: _31  and  _32
REMARK   19  A    between atoms: _41  and  _43
REMARK   20  A    between atoms: _43  and  _44
REMARK   21  A    between atoms: _43  and  _46
REMARK   22  A    between atoms: _46  and  _47
REMARK   23  A    between atoms: _50  and  _52
REMARK   24  A    between atoms: _52  and  _53
REMARK   25  A    between atoms: _52  and  _55
REMARK   26  A    between atoms: _55  and  _56
REMARK   27  A    between atoms: _56  and  _57
REMARK   28  A    between atoms: _57  and  _58
REMARK   29  A    between atoms: _58  and  _59
REMARK   30  A    between atoms: _63  and  _65
REMARK   31  A    between atoms: _65  and  _66
REMARK   32  A    between atoms: _65  and  _68
REMARK   33  A    between atoms: _68  and  _69
REMARK   34  A    between atoms: _69  and  _70
REMARK   35  A    between atoms: _73  and  _75
REMARK   36  A    between atoms: _75  and  _76
REMARK   37  A    between atoms: _75  and  _78
REMARK   38  A    between atoms: _78  and  _79
REMARK   39  A    between atoms: _85  and  _87
REMARK   40  A    between atoms: _87  and  _88
REMARK   41  A    between atoms: _91  and  _93
REMARK   42  A    between atoms: _93  and  _94
REMARK   43  A    between atoms: _93  and  _96
REMARK   44  A    between atoms: _96  and  _97
REMARK   45  A    between atoms: _102  and  _104
REMARK   46  A    between atoms: _104  and  _105
REMARK   47  A    between atoms: _104  and  _107
REMARK   48  A    between atoms: _107  and  _108
REMARK   49  A    between atoms: _108  and  _109
REMARK   50  A    between atoms: _109  and  _110
REMARK   51  A    between atoms: _110  and  _111
REMARK   52  A    between atoms: _115  and  _117
REMARK   53  A    between atoms: _117  and  _118
REMARK   54  A    between atoms: _117  and  _120
REMARK   55  A    between atoms: _120  and  _121
REMARK   56  A    between atoms: _121  and  _122
REMARK   57  A    between atoms: _127  and  _129
REMARK   58  A    between atoms: _129  and  _130
REMARK   59  A    between atoms: _129  and  _132
REMARK   60  A    between atoms: _132  and  _133
REMARK   61  A    between atoms: _136  and  _138
REMARK   62  A    between atoms: _138  and  _139
REMARK   63  A    between atoms: _138  and  _141
REMARK   64  A    between atoms: _141  and  _142
REMARK   65  A    between atoms: _145  and  _147
REMARK   66  A    between atoms: _147  and  _148
REMARK   67  A    between atoms: _147  and  _150
REMARK   68  A    between atoms: _150  and  _151
REMARK   69  A    between atoms: _151  and  _152
REMARK   70  A    between atoms: _155  and  _157
REMARK   71  A    between atoms: _157  and  _158
REMARK   72  A    between atoms: _157  and  _160
REMARK   73  A    between atoms: _160  and  _161
REMARK   74  A    between atoms: _167  and  _169
REMARK   75  A    between atoms: _169  and  _170
REMARK   76  A    between atoms: _169  and  _172
REMARK   77  A    between atoms: _172  and  _173
REMARK   78  A    between atoms: _173  and  _174
REMARK   79  A    between atoms: _174  and  _175
REMARK   80  A    between atoms: _184  and  _186
REMARK   81  A    between atoms: _186  and  _187
REMARK   82  A    between atoms: _190  and  _192
REMARK   83  A    between atoms: _192  and  _193
REMARK   84  A    between atoms: _196  and  _198
REMARK   85  A    between atoms: _198  and  _199
REMARK   86  A    between atoms: _198  and  _201
REMARK   87  A    between atoms: _201  and  _202
REMARK   88  A    between atoms: _208  and  _210
REMARK   89  A    between atoms: _210  and  _211
REMARK   90  A    between atoms: _213  and  _215
REMARK   91  A    between atoms: _215  and  _216
REMARK   92  A    between atoms: _215  and  _218
REMARK   93  A    between atoms: _218  and  _219
REMARK   94  A    between atoms: _222  and  _224
REMARK   95  A    between atoms: _224  and  _225
REMARK   96  A    between atoms: _224  and  _227
REMARK   97  A    between atoms: _227  and  _228
REMARK   98  A    between atoms: _233  and  _235
REMARK   99  A    between atoms: _235  and  _236
REMARK  100  A    between atoms: _235  and  _238
REMARK  101  A    between atoms: _238  and  _239
REMARK  102  A    between atoms: _243  and  _244
REMARK  103  A    between atoms: _249  and  _251
REMARK  104  A    between atoms: _251  and  _252
REMARK  105  A    between atoms: _251  and  _254
REMARK  106  A    between atoms: _254  and  _255
REMARK  107  A    between atoms: _257  and  _259
REMARK  108  A    between atoms: _259  and  _260
REMARK  109  A    between atoms: _263  and  _265
REMARK  110  A    between atoms: _265  and  _266
REMARK  111  A    between atoms: _265  and  _268
REMARK  112  A    between atoms: _268  and  _269
REMARK                            x       y       z     vdW  Elec       q    Type
REMARK                         _______ _______ _______ _____ _____    ______ ____
ROOT
ATOM      1  CA  ALA A   2      52.261  48.468  14.779  0.00  0.00    +0.149 C 
ATOM      2  CB  ALA A   2      53.758  48.164  14.712  0.00  0.00    +0.031 C 
ENDROOT
BRANCH   1   4
ATOM      3  C   PHE A   1      51.269  50.670  14.374  0.00  0.00    +0.239 C 
ATOM      4  N   ALA A   2      52.054  49.884  15.102  0.00  0.00    -0.297 N 
ATOM      5  H   ALA A   2      52.539  50.286  15.930  0.00  0.00    +0.150 HD
ATOM      6  O   PHE A   1      50.666  50.279  13.360  0.00  0.00    -0.274 OA
BRANCH   3   7
ATOM      7  CA  PHE A   1      51.144  52.135  14.827  0.00  0.00    +0.149 C 
BRANCH   7   8
ATOM      8  N   PHE A   1      51.675  52.998  13.759  0.00  0.00    -0.238 NA
ATOM      9  H   PHE A   1      51.015  53.474  13.112  0.00  0.00    +0.142 HD
ENDBRANCH   7   8
BRANCH   7  10
ATOM     10  CB  PHE A   1      49.661  52.417  15.109  0.00  0.00    +0.053 C 
BRANCH  10  11
ATOM     11  CG  PHE A   1      49.391  53.740  15.750  0.00  0.00    -0.020 A 
ATOM     12  CD2 PHE A   1      49.412  53.874  17.147  0.00  0.00    -0.004 A 
ATOM     13  CE2 PHE A   1      49.149  55.110  17.736  0.00  0.00    -0.000 A 
ATOM     14  CZ  PHE A   1      48.857  56.220  16.954  0.00  0.00    -0.000 A 
ATOM     15  CE1 PHE A   1      48.806  56.098  15.575  0.00  0.00    -0.000 A 
ATOM     16  CD1 PHE A   1      49.077  54.854  14.981  0.00  0.00    -0.004 A 
ENDBRANCH  10  11
ENDBRANCH   7  10
ENDBRANCH   3   7
ENDBRANCH   1   4
BRANCH   1  17
ATOM     17  C   ALA A   2      51.540  47.497  15.746  0.00  0.00    +0.241 C 
ATOM     18  N   HIS A   3      51.120  48.006  16.904  0.00  0.00    -0.298 N 
ATOM     19  H   HIS A   3      51.373  48.985  17.147  0.00  0.00    +0.150 HD
ATOM     20  O   ALA A   2      51.406  46.297  15.455  0.00  0.00    -0.273 OA
BRANCH  18  21
ATOM     21  CA  HIS A   3      50.308  47.222  17.850  0.00  0.00    +0.143 C 
BRANCH  21  22
ATOM     22  C   HIS A   3      50.933  45.858  18.178  0.00  0.00    +0.227 C 
ATOM     23  O   HIS A   3      50.304  44.783  18.023  0.00  0.00    -0.286 OA
ENDBRANCH  21  22
BRANCH  21  24
ATOM     24  CB  HIS A   3      48.864  47.089  17.313  0.00  0.00    +0.075 C 
BRANCH  24  25
ATOM     25  CG  HIS A   3      48.162  48.402  17.179  0.00  0.00    +0.082 A 
ATOM     26  CD2 HIS A   3      47.854  49.342  18.102  0.00  0.00    +0.115 A 
ATOM     27  NE2 HIS A   3      47.235  50.372  17.442  0.00  0.00    -0.221 NA
ATOM     28  CE1 HIS A   3      47.166  50.079  16.156  0.00  0.00    +0.199 A 
ATOM     29  ND1 HIS A   3      47.724  48.895  15.968  0.00  0.00    -0.227 NA
ENDBRANCH  24  25
ENDBRANCH  21  24
ENDBRANCH  18  21
ENDBRANCH   1  17
TORSDOF 10
REMARK  Name = ../refined-set-2016/2qrl/2qrl_pocket.pdb
REMARK  112 active torsions:
REMARK  status: ('A' for Active; 'I' for Inactive)
REMARK    1  A    between atoms: _1  and  _3
REMARK    2  A    between atoms: _3  and  _4
REMARK    3  A    between atoms: _3  and  _6
REMARK    4  A    between atoms: _6  and  _7
REMARK    5  A    between atoms: _7  and  _8
REMARK    6  A    between atoms: _8  and  _9
REMARK    7  A    between atoms: _9  and  _10
REMARK    8  A    between atoms: _14  and  _16
REMARK    9  A    between atoms: _16  and  _17
REMARK   10  A    between atoms: _16  and  _19
REMARK   11  A    between atoms: _19  and  _20
REMARK   12  A    between atoms: _20  and  _21
REMARK   13  A    between atoms: _24  and  _26
REMARK   14  A    between atoms: _26  and  _27
REMARK   15  A    between atoms: _26  and  _29
REMARK   16  A    between atoms: _29  and  _30
REMARK   17  A    between atoms: _30  and  _31
REMARK   18  A    between atoms: _31  and  _32
REMARK   19  A    between atoms: _41  and  _43
REMARK   20  A    between atoms: _43  and  _44
REMARK   21  A    between atoms: _43  and  _46
REMARK   22  A    between atoms: _46  and  _47
REMARK   23  A    between atoms: _50  and  _52
REMARK   24  A    between atoms: _52  and  _53
REMARK   25  A    between atoms: _52  and  _55
REMARK   26  A    between atoms: _55  and  _56
REMARK   27  A    between atoms: _56  and  _57
REMARK   28  A    between atoms: _57  and  _58
REMARK   29  A    between atoms: _58  and  _59
REMARK   30  A    between atoms: _63  and  _65
REMARK   31  A    between atoms: _65  and  _66
REMARK   32  A    between atoms: _65  and  _68
REMARK   33  A    between atoms: _68  and  _69
REMARK   34  A    between atoms: _69  and  _70
REMARK   35  A    between atoms: _73  and  _75
REMARK   36  A    between atoms: _75  and  _76
REMARK   37  A    between atoms: _75  and  _78
REMARK   38  A    between atoms: _78  and  _79
REMARK   39  A    between atoms: _85  and  _87
REMARK   40  A    between atoms: _87  and  _88
REMARK   41  A    between atoms: _91  and  _93
REMARK   42  A    between atoms: _93  and  _94
REMARK   43  A    between atoms: _93  and  _96
REMARK   44  A    between atoms: _96  and  _97
REMARK   45  A    between atoms: _102  and  _104
REMARK   46  A    between atoms: _104  and  _105
REMARK   47  A    between atoms: _104  and  _107
REMARK   48  A    between atoms: _107  and  _108
REMARK   49  A    between atoms: _108  and  _109
REMARK   50  A    between atoms: _109  and  _110
REMARK   51  A    between atoms: _110  and  _111
REMARK   52  A    between atoms: _115  and  _117
REMARK   53  A    between atoms: _117  and  _118
REMARK   54  A    between atoms: _117  and  _120
REMARK   55  A    between atoms: _120  and  _121
REMARK   56  A    between atoms: _121  and  _122
REMARK   57  A    between atoms: _127  and  _129
REMARK   58  A    between atoms: _129  and  _130
REMARK   59  A    between atoms: _129  and  _132
REMARK   60  A    between atoms: _132  and  _133
REMARK   61  A    between atoms: _136  and  _138
REMARK   62  A    between atoms: _138  and  _139
REMARK   63  A    between atoms: _138  and  _141
REMARK   64  A    between atoms: _141  and  _142
REMARK   65  A    between atoms: _145  and  _147
REMARK   66  A    between atoms: _147  and  _148
REMARK   67  A    between atoms: _147  and  _150
REMARK   68  A    between atoms: _150  and  _151
REMARK   69  A    between atoms: _151  and  _152
REMARK   70  A    between atoms: _155  and  _157
REMARK   71  A    between atoms: _157  and  _158
REMARK   72  A    between atoms: _157  and  _160
REMARK   73  A    between atoms: _160  and  _161
REMARK   74  A    between atoms: _167  and  _169
REMARK   75  A    between atoms: _169  and  _170
REMARK   76  A    between atoms: _169  and  _172
REMARK   77  A    between atoms: _172  and  _173
REMARK   78  A    between atoms: _173  and  _174
REMARK   79  A    between atoms: _174  and  _175
REMARK   80  A    between atoms: _184  and  _186
REMARK   81  A    between atoms: _186  and  _187
REMARK   82  A    between atoms: _190  and  _192
REMARK   83  A    between atoms: _192  and  _193
REMARK   84  A    between atoms: _196  and  _198
REMARK   85  A    between atoms: _198  and  _199
REMARK   86  A    between atoms: _198  and  _201
REMARK   87  A    between atoms: _201  and  _202
REMARK   88  A    between atoms: _208  and  _210
REMARK   89  A    between atoms: _210  and  _211
REMARK   90  A    between atoms: _213  and  _215
REMARK   91  A    between atoms: _215  and  _216
REMARK   92  A    between atoms: _215  and  _218
REMARK   93  A    between atoms: _218  and  _219
REMARK   94  A    between atoms: _222  and  _224
REMARK   95  A    between atoms: _224  and  _225
REMARK   96  A    between atoms: _224  and  _227
REMARK   97  A    between atoms: _227  and  _228
REMARK   98  A    between atoms: _233  and  _235
REMARK   99  A    between atoms: _235  and  _236
REMARK  100  A    between atoms: _235  and  _238
REMARK  101  A    between atoms: _238  and  _239
REMARK  102  A    between atoms: _243  and  _244
REMARK  103  A    between atoms: _249  and  _251
REMARK  104  A    between atoms: _251  and  _252
REMARK  105  A    between atoms: _251  and  _254
REMARK  106  A    between atoms: _254  and  _255
REMARK  107  A    between atoms: _257  and  _259
REMARK  108  A    between atoms: _259  and  _260
REMARK  109  A    between atoms: _263  and  _265
REMARK  110  A    between atoms: _265  and  _266
REMARK  111  A    between atoms: _265  and  _268
REMARK  112  A    between atoms: _268  and  _269
REMARK                            x       y       z     vdW  Elec       q    Type
REMARK                         _______ _______ _______ _____ _____    ______ ____
ROOT
ATOM      1  CG  LYS A   1      50.603  47.185  24.765  0.00  0.00    -0.000 C 
ENDROOT
BRANCH   1   2
ATOM      2  CB  LYS A   1      50.179  45.761  24.429  0.00  0.00    +0.025 C 
BRANCH   2   3
ATOM      3  CA  LYS A   1      51.351  44.785  24.382  0.00  0.00    +0.133 C 
BRANCH   3   4
ATOM      4  N   LYS A   1      52.245  45.120  23.259  0.00  0.00    -0.239 NA
ATOM      5  H   LYS A   1      51.899  45.026  22.283  0.00  0.00    +0.142 HD
ENDBRANCH   3   4
BRANCH   3   6
ATOM      6  C   LYS A   1      50.881  43.342  24.287  0.00  0.00    +0.224 C 
ATOM      7  O   LYS A   1      49.726  43.020  24.616  0.00  0.00    -0.287 OA
ENDBRANCH   3   6
ENDBRANCH   2   3
ENDBRANCH   1   2
BRANCH   1   8
ATOM      8  CD  LYS A   1      49.414  48.112  24.764  0.00  0.00    -0.024 C 
BRANCH   8   9
ATOM      9  CE  LYS A   1      49.821  49.542  25.036  0.00  0.00    -0.086 C 
BRANCH   9  10
ATOM     10  NZ  LYS A   1      48.603  50.413  24.976  0.00  0.00    +0.380 N 
ATOM     11  HZ1 LYS A   1      47.918  50.099  25.693  0.00  0.00    -0.089 HD
ATOM     12  HZ2 LYS A   1      48.874  51.400  25.162  0.00  0.00    -0.089 HD
ATOM     13  HZ3 LYS A   1      48.174  50.343  24.031  0.00  0.00    -0.089 HD
ENDBRANCH   9  10
ENDBRANCH   8   9
ENDBRANCH   1   8
TORSDOF 7
REMARK  Name = ../refined-set-2016/2qrl/2qrl_pocket.pdb
REMARK  112 active torsions:
REMARK  status: ('A' for Active; 'I' for Inactive)
REMARK    1  A    between atoms: _1  and  _3
REMARK    2  A    between atoms: _3  and  _4
REMARK    3  A    between atoms: _3  and  _6
REMARK    4  A    between atoms: _6  and  _7
REMARK    5  A    between atoms: _7  and  _8
REMARK    6  A    between atoms: _8  and  _9
REMARK    7  A    between atoms: _9  and  _10
REMARK    8  A    between atoms: _14  and  _16
REMARK    9  A    between atoms: _16  and  _17
REMARK   10  A    between atoms: _16  and  _19
REMARK   11  A    between atoms: _19  and  _20
REMARK   12  A    between atoms: _20  and  _21
REMARK   13  A    between atoms: _24  and  _26
REMARK   14  A    between atoms: _26  and  _27
REMARK   15  A    between atoms: _26  and  _29
REMARK   16  A    between atoms: _29  and  _30
REMARK   17  A    between atoms: _30  and  _31
REMARK   18  A    between atoms: _31  and  _32
REMARK   19  A    between atoms: _41  and  _43
REMARK   20  A    between atoms: _43  and  _44
REMARK   21  A    between atoms: _43  and  _46
REMARK   22  A    between atoms: _46  and  _47
REMARK   23  A    between atoms: _50  and  _52
REMARK   24  A    between atoms: _52  and  _53
REMARK   25  A    between atoms: _52  and  _55
REMARK   26  A    between atoms: _55  and  _56
REMARK   27  A    between atoms: _56  and  _57
REMARK   28  A    between atoms: _57  and  _58
REMARK   29  A    between atoms: _58  and  _59
REMARK   30  A    between atoms: _63  and  _65
REMARK   31  A    between atoms: _65  and  _66
REMARK   32  A    between atoms: _65  and  _68
REMARK   33  A    between atoms: _68  and  _69
REMARK   34  A    between atoms: _69  and  _70
REMARK   35  A    between atoms: _73  and  _75
REMARK   36  A    between atoms: _75  and  _76
REMARK   37  A    between atoms: _75  and  _78
REMARK   38  A    between atoms: _78  and  _79
REMARK   39  A    between atoms: _85  and  _87
REMARK   40  A    between atoms: _87  and  _88
REMARK   41  A    between atoms: _91  and  _93
REMARK   42  A    between atoms: _93  and  _94
REMARK   43  A    between atoms: _93  and  _96
REMARK   44  A    between atoms: _96  and  _97
REMARK   45  A    between atoms: _102  and  _104
REMARK   46  A    between atoms: _104  and  _105
REMARK   47  A    between atoms: _104  and  _107
REMARK   48  A    between atoms: _107  and  _108
REMARK   49  A    between atoms: _108  and  _109
REMARK   50  A    between atoms: _109  and  _110
REMARK   51  A    between atoms: _110  and  _111
REMARK   52  A    between atoms: _115  and  _117
REMARK   53  A    between atoms: _117  and  _118
REMARK   54  A    between atoms: _117  and  _120
REMARK   55  A    between atoms: _120  and  _121
REMARK   56  A    between atoms: _121  and  _122
REMARK   57  A    between atoms: _127  and  _129
REMARK   58  A    between atoms: _129  and  _130
REMARK   59  A    between atoms: _129  and  _132
REMARK   60  A    between atoms: _132  and  _133
REMARK   61  A    between atoms: _136  and  _138
REMARK   62  A    between atoms: _138  and  _139
REMARK   63  A    between atoms: _138  and  _141
REMARK   64  A    between atoms: _141  and  _142
REMARK   65  A    between atoms: _145  and  _147
REMARK   66  A    between atoms: _147  and  _148
REMARK   67  A    between atoms: _147  and  _150
REMARK   68  A    between atoms: _150  and  _151
REMARK   69  A    between atoms: _151  and  _152
REMARK   70  A    between atoms: _155  and  _157
REMARK   71  A    between atoms: _157  and  _158
REMARK   72  A    between atoms: _157  and  _160
REMARK   73  A    between atoms: _160  and  _161
REMARK   74  A    between atoms: _167  and  _169
REMARK   75  A    between atoms: _169  and  _170
REMARK   76  A    between atoms: _169  and  _172
REMARK   77  A    between atoms: _172  and  _173
REMARK   78  A    between atoms: _173  and  _174
REMARK   79  A    between atoms: _174  and  _175
REMARK   80  A    between atoms: _184  and  _186
REMARK   81  A    between atoms: _186  and  _187
REMARK   82  A    between atoms: _190  and  _192
REMARK   83  A    between atoms: _192  and  _193
REMARK   84  A    between atoms: _196  and  _198
REMARK   85  A    between atoms: _198  and  _199
REMARK   86  A    between atoms: _198  and  _201
REMARK   87  A    between atoms: _201  and  _202
REMARK   88  A    between atoms: _208  and  _210
REMARK   89  A    between atoms: _210  and  _211
REMARK   90  A    between atoms: _213  and  _215
REMARK   91  A    between atoms: _215  and  _216
REMARK   92  A    between atoms: _215  and  _218
REMARK   93  A    between atoms: _218  and  _219
REMARK   94  A    between atoms: _222  and  _224
REMARK   95  A    between atoms: _224  and  _225
REMARK   96  A    between atoms: _224  and  _227
REMARK   97  A    between atoms: _227  and  _228
REMARK   98  A    between atoms: _233  and  _235
REMARK   99  A    between atoms: _235  and  _236
REMARK  100  A    between atoms: _235  and  _238
REMARK  101  A    between atoms: _238  and  _239
REMARK  102  A    between atoms: _243  and  _244
REMARK  103  A    between atoms: _249  and  _251
REMARK  104  A    between atoms: _251  and  _252
REMARK  105  A    between atoms: _251  and  _254
REMARK  106  A    between atoms: _254  and  _255
REMARK  107  A    between atoms: _257  and  _259
REMARK  108  A    between atoms: _259  and  _260
REMARK  109  A    between atoms: _263  and  _265
REMARK  110  A    between atoms: _265  and  _266
REMARK  111  A    between atoms: _265  and  _268
REMARK  112  A    between atoms: _268  and  _269
REMARK                            x       y       z     vdW  Elec       q    Type
REMARK                         _______ _______ _______ _____ _____    ______ ____
ROOT
ATOM      1  CB  GLN A   1      48.737  42.499  19.910  0.00  0.00    +0.035 C 
ENDROOT
BRANCH   1   2
ATOM      2  CA  GLN A   1      48.883  41.333  20.901  0.00  0.00    +0.134 C 
BRANCH   2   3
ATOM      3  N   GLN A   1      49.949  41.591  21.876  0.00  0.00    -0.239 NA
ATOM      4  H   GLN A   1      50.437  42.509  21.850  0.00  0.00    +0.142 HD
ENDBRANCH   2   3
BRANCH   2   5
ATOM      5  C   GLN A   1      49.153  40.014  20.146  0.00  0.00    +0.224 C 
ATOM      6  O   GLN A   1      50.325  39.651  19.905  0.00  0.00    -0.287 OA
ENDBRANCH   2   5
ENDBRANCH   1   2
BRANCH   1   7
ATOM      7  CG  GLN A   1      48.304  43.832  20.540  0.00  0.00    +0.087 C 
BRANCH   7   8
ATOM      8  CD  GLN A   1      49.482  44.751  20.890  0.00  0.00    +0.219 C 
ATOM      9  OE1 GLN A   1      50.595  44.288  21.174  0.00  0.00    -0.275 OA
ATOM     10  NE2 GLN A   1      49.231  46.065  20.871  0.00  0.00    -0.329 N 
ATOM     11 HE21 GLN A   1      49.986  46.742  21.101  0.00  0.00    +0.145 HD
ATOM     12 HE22 GLN A   1      48.281  46.409  20.627  0.00  0.00    +0.145 HD
ENDBRANCH   7   8
ENDBRANCH   1   7
TORSDOF 5
REMARK  Name = ../refined-set-2016/2qrl/2qrl_pocket.pdb
REMARK  112 active torsions:
REMARK  status: ('A' for Active; 'I' for Inactive)
REMARK    1  A    between atoms: _1  and  _3
REMARK    2  A    between atoms: _3  and  _4
REMARK    3  A    between atoms: _3  and  _6
REMARK    4  A    between atoms: _6  and  _7
REMARK    5  A    between atoms: _7  and  _8
REMARK    6  A    between atoms: _8  and  _9
REMARK    7  A    between atoms: _9  and  _10
REMARK    8  A    between atoms: _14  and  _16
REMARK    9  A    between atoms: _16  and  _17
REMARK   10  A    between atoms: _16  and  _19
REMARK   11  A    between atoms: _19  and  _20
REMARK   12  A    between atoms: _20  and  _21
REMARK   13  A    between atoms: _24  and  _26
REMARK   14  A    between atoms: _26  and  _27
REMARK   15  A    between atoms: _26  and  _29
REMARK   16  A    between atoms: _29  and  _30
REMARK   17  A    between atoms: _30  and  _31
REMARK   18  A    between atoms: _31  and  _32
REMARK   19  A    between atoms: _41  and  _43
REMARK   20  A    between atoms: _43  and  _44
REMARK   21  A    between atoms: _43  and  _46
REMARK   22  A    between atoms: _46  and  _47
REMARK   23  A    between atoms: _50  and  _52
REMARK   24  A    between atoms: _52  and  _53
REMARK   25  A    between atoms: _52  and  _55
REMARK   26  A    between atoms: _55  and  _56
REMARK   27  A    between atoms: _56  and  _57
REMARK   28  A    between atoms: _57  and  _58
REMARK   29  A    between atoms: _58  and  _59
REMARK   30  A    between atoms: _63  and  _65
REMARK   31  A    between atoms: _65  and  _66
REMARK   32  A    between atoms: _65  and  _68
REMARK   33  A    between atoms: _68  and  _69
REMARK   34  A    between atoms: _69  and  _70
REMARK   35  A    between atoms: _73  and  _75
REMARK   36  A    between atoms: _75  and  _76
REMARK   37  A    between atoms: _75  and  _78
REMARK   38  A    between atoms: _78  and  _79
REMARK   39  A    between atoms: _85  and  _87
REMARK   40  A    between atoms: _87  and  _88
REMARK   41  A    between atoms: _91  and  _93
REMARK   42  A    between atoms: _93  and  _94
REMARK   43  A    between atoms: _93  and  _96
REMARK   44  A    between atoms: _96  and  _97
REMARK   45  A    between atoms: _102  and  _104
REMARK   46  A    between atoms: _104  and  _105
REMARK   47  A    between atoms: _104  and  _107
REMARK   48  A    between atoms: _107  and  _108
REMARK   49  A    between atoms: _108  and  _109
REMARK   50  A    between atoms: _109  and  _110
REMARK   51  A    between atoms: _110  and  _111
REMARK   52  A    between atoms: _115  and  _117
REMARK   53  A    between atoms: _117  and  _118
REMARK   54  A    between atoms: _117  and  _120
REMARK   55  A    between atoms: _120  and  _121
REMARK   56  A    between atoms: _121  and  _122
REMARK   57  A    between atoms: _127  and  _129
REMARK   58  A    between atoms: _129  and  _130
REMARK   59  A    between atoms: _129  and  _132
REMARK   60  A    between atoms: _132  and  _133
REMARK   61  A    between atoms: _136  and  _138
REMARK   62  A    between atoms: _138  and  _139
REMARK   63  A    between atoms: _138  and  _141
REMARK   64  A    between atoms: _141  and  _142
REMARK   65  A    between atoms: _145  and  _147
REMARK   66  A    between atoms: _147  and  _148
REMARK   67  A    between atoms: _147  and  _150
REMARK   68  A    between atoms: _150  and  _151
REMARK   69  A    between atoms: _151  and  _152
REMARK   70  A    between atoms: _155  and  _157
REMARK   71  A    between atoms: _157  and  _158
REMARK   72  A    between atoms: _157  and  _160
REMARK   73  A    between atoms: _160  and  _161
REMARK   74  A    between atoms: _167  and  _169
REMARK   75  A    between atoms: _169  and  _170
REMARK   76  A    between atoms: _169  and  _172
REMARK   77  A    between atoms: _172  and  _173
REMARK   78  A    between atoms: _173  and  _174
REMARK   79  A    between atoms: _174  and  _175
REMARK   80  A    between atoms: _184  and  _186
REMARK   81  A    between atoms: _186  and  _187
REMARK   82  A    between atoms: _190  and  _192
REMARK   83  A    between atoms: _192  and  _193
REMARK   84  A    between atoms: _196  and  _198
REMARK   85  A    between atoms: _198  and  _199
REMARK   86  A    between atoms: _198  and  _201
REMARK   87  A    between atoms: _201  and  _202
REMARK   88  A    between atoms: _208  and  _210
REMARK   89  A    between atoms: _210  and  _211
REMARK   90  A    between atoms: _213  and  _215
REMARK   91  A    between atoms: _215  and  _216
REMARK   92  A    between atoms: _215  and  _218
REMARK   93  A    between atoms: _218  and  _219
REMARK   94  A    between atoms: _222  and  _224
REMARK   95  A    between atoms: _224  and  _225
REMARK   96  A    between atoms: _224  and  _227
REMARK   97  A    between atoms: _227  and  _228
REMARK   98  A    between atoms: _233  and  _235
REMARK   99  A    between atoms: _235  and  _236
REMARK  100  A    between atoms: _235  and  _238
REMARK  101  A    between atoms: _238  and  _239
REMARK  102  A    between atoms: _243  and  _244
REMARK  103  A    between atoms: _249  and  _251
REMARK  104  A    between atoms: _251  and  _252
REMARK  105  A    between atoms: _251  and  _254
REMARK  106  A    between atoms: _254  and  _255
REMARK  107  A    between atoms: _257  and  _259
REMARK  108  A    between atoms: _259  and  _260
REMARK  109  A    between atoms: _263  and  _265
REMARK  110  A    between atoms: _265  and  _266
REMARK  111  A    between atoms: _265  and  _268
REMARK  112  A    between atoms: _268  and  _269
REMARK                            x       y       z     vdW  Elec       q    Type
REMARK                         _______ _______ _______ _____ _____    ______ ____
ROOT
ATOM      1  C   LEU A   2      52.936  56.095  18.343  0.00  0.00    +0.241 C 
ATOM      2  O   LEU A   2      52.828  57.164  18.929  0.00  0.00    -0.273 OA
ATOM      3  N   GLU A   3      52.541  54.936  18.856  0.00  0.00    -0.297 N 
ATOM      4  H   GLU A   3      52.741  54.055  18.341  0.00  0.00    +0.150 HD
ENDROOT
BRANCH   3   5
ATOM      5  CA  GLU A   3      51.825  54.874  20.140  0.00  0.00    +0.149 C 
BRANCH   5   6
ATOM      6  C   GLU A   3      52.745  55.206  21.317  0.00  0.00    +0.241 C 
ATOM      7  O   GLU A   3      52.277  55.524  22.420  0.00  0.00    -0.273 OA
ATOM      8  N   PHE A   4      54.050  55.163  21.064  0.00  0.00    -0.298 N 
ATOM      9  H   PHE A   4      54.370  55.072  20.079  0.00  0.00    +0.150 HD
BRANCH   8  10
ATOM     10  CA  PHE A   4      55.048  55.240  22.131  0.00  0.00    +0.141 C 
BRANCH  10  11
ATOM     11  C   PHE A   4      56.010  56.402  21.996  0.00  0.00    +0.227 C 
ATOM     12  O   PHE A   4      56.906  56.556  22.829  0.00  0.00    -0.286 OA
ENDBRANCH  10  11
BRANCH  10  13
ATOM     13  CB  PHE A   4      55.789  53.905  22.265  0.00  0.00    +0.054 C 
BRANCH  13  14
ATOM     14  CG  PHE A   4      54.887  52.786  22.662  0.00  0.00    -0.020 A 
ATOM     15  CD2 PHE A   4      54.686  52.474  24.012  0.00  0.00    -0.004 A 
ATOM     16  CE2 PHE A   4      53.809  51.454  24.369  0.00  0.00    -0.000 A 
ATOM     17  CZ  PHE A   4      53.105  50.749  23.394  0.00  0.00    -0.000 A 
ATOM     18  CE1 PHE A   4      53.282  51.064  22.055  0.00  0.00    -0.000 A 
ATOM     19  CD1 PHE A   4      54.165  52.091  21.699  0.00  0.00    -0.004 A 
ENDBRANCH  13  14
ENDBRANCH  10  13
ENDBRANCH   8  10
ENDBRANCH   5   6
BRANCH   5  20
ATOM     20  CB  GLU A   3      51.189  53.491  20.308  0.00  0.00    +0.041 C 
BRANCH  20  21
ATOM     21  CG  GLU A   3      50.262  53.345  21.507  0.00  0.00    +0.116 C 
BRANCH  21  22
ATOM     22  CD  GLU A   3      49.704  51.940  21.648  0.00  0.00    +0.365 C 
ATOM     23  OE2 GLU A   3      49.065  51.689  22.696  0.00  0.00    -0.246 OA
ATOM     24  OE1 GLU A   3      49.892  51.078  20.742  0.00  0.00    -0.246 OA
ENDBRANCH  21  22
ENDBRANCH  20  21
ENDBRANCH   5  20
ENDBRANCH   3   5
BRANCH   1  25
ATOM     25  CA  LEU A   2      53.592  56.059  16.960  0.00  0.00    +0.149 C 
BRANCH  25  28
ATOM     26  C   ASP A   1      55.296  54.367  17.456  0.00  0.00    +0.239 C 
ATOM     27  O   ASP A   1      55.661  54.910  18.512  0.00  0.00    -0.274 OA
ATOM     28  N   LEU A   2      54.281  54.795  16.706  0.00  0.00    -0.297 N 
ATOM     29  H   LEU A   2      53.967  54.206  15.908  0.00  0.00    +0.150 HD
BRANCH  26  30
ATOM     30  CA  ASP A   1      55.964  53.082  16.974  0.00  0.00    +0.156 C 
BRANCH  30  31
ATOM     31  N   ASP A   1      57.410  53.219  16.762  0.00  0.00    -0.238 NA
ATOM     32  H   ASP A   1      58.080  52.888  17.485  0.00  0.00    +0.142 HD
ENDBRANCH  30  31
BRANCH  30  33
ATOM     33  CB  ASP A   1      55.645  51.917  17.891  0.00  0.00    +0.140 C 
BRANCH  33  34
ATOM     34  CG  ASP A   1      54.191  51.471  17.769  0.00  0.00    +0.367 C 
ATOM     35  OD2 ASP A   1      53.311  52.260  18.156  0.00  0.00    -0.246 OA
ATOM     36  OD1 ASP A   1      53.986  50.335  17.288  0.00  0.00    -0.246 OA
ENDBRANCH  33  34
ENDBRANCH  30  33
ENDBRANCH  26  30
ENDBRANCH  25  28
BRANCH  25  37
ATOM     37  CB  LEU A   2      52.548  56.359  15.879  0.00  0.00    +0.029 C 
BRANCH  37  38
ATOM     38  CG  LEU A   2      53.089  56.824  14.531  0.00  0.00    +0.002 C 
ATOM     39  CD2 LEU A   2      53.697  58.246  14.666  0.00  0.00    +0.000 C 
ATOM     40  CD1 LEU A   2      52.010  56.799  13.446  0.00  0.00    +0.000 C 
ENDBRANCH  37  38
ENDBRANCH  25  37
ENDBRANCH   1  25
TORSDOF 17
REMARK  Name = ../refined-set-2016/2qrl/2qrl_pocket.pdb
REMARK  112 active torsions:
REMARK  status: ('A' for Active; 'I' for Inactive)
REMARK    1  A    between atoms: _1  and  _3
REMARK    2  A    between atoms: _3  and  _4
REMARK    3  A    between atoms: _3  and  _6
REMARK    4  A    between atoms: _6  and  _7
REMARK    5  A    between atoms: _7  and  _8
REMARK    6  A    between atoms: _8  and  _9
REMARK    7  A    between atoms: _9  and  _10
REMARK    8  A    between atoms: _14  and  _16
REMARK    9  A    between atoms: _16  and  _17
REMARK   10  A    between atoms: _16  and  _19
REMARK   11  A    between atoms: _19  and  _20
REMARK   12  A    between atoms: _20  and  _21
REMARK   13  A    between atoms: _24  and  _26
REMARK   14  A    between atoms: _26  and  _27
REMARK   15  A    between atoms: _26  and  _29
REMARK   16  A    between atoms: _29  and  _30
REMARK   17  A    between atoms: _30  and  _31
REMARK   18  A    between atoms: _31  and  _32
REMARK   19  A    between atoms: _41  and  _43
REMARK   20  A    between atoms: _43  and  _44
REMARK   21  A    between atoms: _43  and  _46
REMARK   22  A    between atoms: _46  and  _47
REMARK   23  A    between atoms: _50  and  _52
REMARK   24  A    between atoms: _52  and  _53
REMARK   25  A    between atoms: _52  and  _55
REMARK   26  A    between atoms: _55  and  _56
REMARK   27  A    between atoms: _56  and  _57
REMARK   28  A    between atoms: _57  and  _58
REMARK   29  A    between atoms: _58  and  _59
REMARK   30  A    between atoms: _63  and  _65
REMARK   31  A    between atoms: _65  and  _66
REMARK   32  A    between atoms: _65  and  _68
REMARK   33  A    between atoms: _68  and  _69
REMARK   34  A    between atoms: _69  and  _70
REMARK   35  A    between atoms: _73  and  _75
REMARK   36  A    between atoms: _75  and  _76
REMARK   37  A    between atoms: _75  and  _78
REMARK   38  A    between atoms: _78  and  _79
REMARK   39  A    between atoms: _85  and  _87
REMARK   40  A    between atoms: _87  and  _88
REMARK   41  A    between atoms: _91  and  _93
REMARK   42  A    between atoms: _93  and  _94
REMARK   43  A    between atoms: _93  and  _96
REMARK   44  A    between atoms: _96  and  _97
REMARK   45  A    between atoms: _102  and  _104
REMARK   46  A    between atoms: _104  and  _105
REMARK   47  A    between atoms: _104  and  _107
REMARK   48  A    between atoms: _107  and  _108
REMARK   49  A    between atoms: _108  and  _109
REMARK   50  A    between atoms: _109  and  _110
REMARK   51  A    between atoms: _110  and  _111
REMARK   52  A    between atoms: _115  and  _117
REMARK   53  A    between atoms: _117  and  _118
REMARK   54  A    between atoms: _117  and  _120
REMARK   55  A    between atoms: _120  and  _121
REMARK   56  A    between atoms: _121  and  _122
REMARK   57  A    between atoms: _127  and  _129
REMARK   58  A    between atoms: _129  and  _130
REMARK   59  A    between atoms: _129  and  _132
REMARK   60  A    between atoms: _132  and  _133
REMARK   61  A    between atoms: _136  and  _138
REMARK   62  A    between atoms: _138  and  _139
REMARK   63  A    between atoms: _138  and  _141
REMARK   64  A    between atoms: _141  and  _142
REMARK   65  A    between atoms: _145  and  _147
REMARK   66  A    between atoms: _147  and  _148
REMARK   67  A    between atoms: _147  and  _150
REMARK   68  A    between atoms: _150  and  _151
REMARK   69  A    between atoms: _151  and  _152
REMARK   70  A    between atoms: _155  and  _157
REMARK   71  A    between atoms: _157  and  _158
REMARK   72  A    between atoms: _157  and  _160
REMARK   73  A    between atoms: _160  and  _161
REMARK   74  A    between atoms: _167  and  _169
REMARK   75  A    between atoms: _169  and  _170
REMARK   76  A    between atoms: _169  and  _172
REMARK   77  A    between atoms: _172  and  _173
REMARK   78  A    between atoms: _173  and  _174
REMARK   79  A    between atoms: _174  and  _175
REMARK   80  A    between atoms: _184  and  _186
REMARK   81  A    between atoms: _186  and  _187
REMARK   82  A    between atoms: _190  and  _192
REMARK   83  A    between atoms: _192  and  _193
REMARK   84  A    between atoms: _196  and  _198
REMARK   85  A    between atoms: _198  and  _199
REMARK   86  A    between atoms: _198  and  _201
REMARK   87  A    between atoms: _201  and  _202
REMARK   88  A    between atoms: _208  and  _210
REMARK   89  A    between atoms: _210  and  _211
REMARK   90  A    between atoms: _213  and  _215
REMARK   91  A    between atoms: _215  and  _216
REMARK   92  A    between atoms: _215  and  _218
REMARK   93  A    between atoms: _218  and  _219
REMARK   94  A    between atoms: _222  and  _224
REMARK   95  A    between atoms: _224  and  _225
REMARK   96  A    between atoms: _224  and  _227
REMARK   97  A    between atoms: _227  and  _228
REMARK   98  A    between atoms: _233  and  _235
REMARK   99  A    between atoms: _235  and  _236
REMARK  100  A    between atoms: _235  and  _238
REMARK  101  A    between atoms: _238  and  _239
REMARK  102  A    between atoms: _243  and  _244
REMARK  103  A    between atoms: _249  and  _251
REMARK  104  A    between atoms: _251  and  _252
REMARK  105  A    between atoms: _251  and  _254
REMARK  106  A    between atoms: _254  and  _255
REMARK  107  A    between atoms: _257  and  _259
REMARK  108  A    between atoms: _259  and  _260
REMARK  109  A    between atoms: _263  and  _265
REMARK  110  A    between atoms: _265  and  _266
REMARK  111  A    between atoms: _265  and  _268
REMARK  112  A    between atoms: _268  and  _269
REMARK                            x       y       z     vdW  Elec       q    Type
REMARK                         _______ _______ _______ _____ _____    ______ ____
ROOT
ATOM      1  NE  ARG A   1      50.556  58.298  22.143  0.00  0.00    -0.265 N 
ATOM      2  CZ  ARG A   1      49.498  57.689  21.643  0.00  0.00    +0.342 C 
ATOM      3  NH2 ARG A   1      48.794  56.887  22.444  0.00  0.00    -0.292 N 
ATOM      4 HH21 ARG A   1      49.084  56.756  23.434  0.00  0.00    +0.255 HD
ATOM      5 HH22 ARG A   1      47.955  56.393  22.078  0.00  0.00    +0.255 HD
ATOM      6  NH1 ARG A   1      49.129  57.880  20.382  0.00  0.00    -0.292 N 
ATOM      7 HH11 ARG A   1      48.292  57.391  20.005  0.00  0.00    +0.255 HD
ATOM      8 HH12 ARG A   1      49.677  58.519  19.771  0.00  0.00    +0.255 HD
ATOM      9  HE  ARG A   1      51.114  58.937  21.542  0.00  0.00    +0.259 HD
ENDROOT
BRANCH   1  10
ATOM     10  CD  ARG A   1      50.951  58.084  23.532  0.00  0.00    +0.174 C 
BRANCH  10  11
ATOM     11  CG  ARG A   1      51.860  59.070  24.088  0.00  0.00    +0.045 C 
BRANCH  11  12
ATOM     12  CB  ARG A   1      51.500  60.489  23.786  0.00  0.00    +0.029 C 
BRANCH  12  13
ATOM     13  CA  ARG A   1      52.714  61.364  24.104  0.00  0.00    +0.133 C 
BRANCH  13  14
ATOM     14  N   ARG A   1      52.796  61.701  25.537  0.00  0.00    -0.239 NA
ATOM     15  H   ARG A   1      52.047  61.393  26.190  0.00  0.00    +0.142 HD
ENDBRANCH  13  14
BRANCH  13  16
ATOM     16  C   ARG A   1      52.714  62.597  23.242  0.00  0.00    +0.224 C 
ATOM     17  O   ARG A   1      52.055  63.594  23.575  0.00  0.00    -0.287 OA
ENDBRANCH  13  16
ENDBRANCH  12  13
ENDBRANCH  11  12
ENDBRANCH  10  11
ENDBRANCH   1  10
TORSDOF 6
REMARK  Name = ../refined-set-2016/2qrl/2qrl_pocket.pdb
REMARK  112 active torsions:
REMARK  status: ('A' for Active; 'I' for Inactive)
REMARK    1  A    between atoms: _1  and  _3
REMARK    2  A    between atoms: _3  and  _4
REMARK    3  A    between atoms: _3  and  _6
REMARK    4  A    between atoms: _6  and  _7
REMARK    5  A    between atoms: _7  and  _8
REMARK    6  A    between atoms: _8  and  _9
REMARK    7  A    between atoms: _9  and  _10
REMARK    8  A    between atoms: _14  and  _16
REMARK    9  A    between atoms: _16  and  _17
REMARK   10  A    between atoms: _16  and  _19
REMARK   11  A    between atoms: _19  and  _20
REMARK   12  A    between atoms: _20  and  _21
REMARK   13  A    between atoms: _24  and  _26
REMARK   14  A    between atoms: _26  and  _27
REMARK   15  A    between atoms: _26  and  _29
REMARK   16  A    between atoms: _29  and  _30
REMARK   17  A    between atoms: _30  and  _31
REMARK   18  A    between atoms: _31  and  _32
REMARK   19  A    between atoms: _41  and  _43
REMARK   20  A    between atoms: _43  and  _44
REMARK   21  A    between atoms: _43  and  _46
REMARK   22  A    between atoms: _46  and  _47
REMARK   23  A    between atoms: _50  and  _52
REMARK   24  A    between atoms: _52  and  _53
REMARK   25  A    between atoms: _52  and  _55
REMARK   26  A    between atoms: _55  and  _56
REMARK   27  A    between atoms: _56  and  _57
REMARK   28  A    between atoms: _57  and  _58
REMARK   29  A    between atoms: _58  and  _59
REMARK   30  A    between atoms: _63  and  _65
REMARK   31  A    between atoms: _65  and  _66
REMARK   32  A    between atoms: _65  and  _68
REMARK   33  A    between atoms: _68  and  _69
REMARK   34  A    between atoms: _69  and  _70
REMARK   35  A    between atoms: _73  and  _75
REMARK   36  A    between atoms: _75  and  _76
REMARK   37  A    between atoms: _75  and  _78
REMARK   38  A    between atoms: _78  and  _79
REMARK   39  A    between atoms: _85  and  _87
REMARK   40  A    between atoms: _87  and  _88
REMARK   41  A    between atoms: _91  and  _93
REMARK   42  A    between atoms: _93  and  _94
REMARK   43  A    between atoms: _93  and  _96
REMARK   44  A    between atoms: _96  and  _97
REMARK   45  A    between atoms: _102  and  _104
REMARK   46  A    between atoms: _104  and  _105
REMARK   47  A    between atoms: _104  and  _107
REMARK   48  A    between atoms: _107  and  _108
REMARK   49  A    between atoms: _108  and  _109
REMARK   50  A    between atoms: _109  and  _110
REMARK   51  A    between atoms: _110  and  _111
REMARK   52  A    between atoms: _115  and  _117
REMARK   53  A    between atoms: _117  and  _118
REMARK   54  A    between atoms: _117  and  _120
REMARK   55  A    between atoms: _120  and  _121
REMARK   56  A    between atoms: _121  and  _122
REMARK   57  A    between atoms: _127  and  _129
REMARK   58  A    between atoms: _129  and  _130
REMARK   59  A    between atoms: _129  and  _132
REMARK   60  A    between atoms: _132  and  _133
REMARK   61  A    between atoms: _136  and  _138
REMARK   62  A    between atoms: _138  and  _139
REMARK   63  A    between atoms: _138  and  _141
REMARK   64  A    between atoms: _141  and  _142
REMARK   65  A    between atoms: _145  and  _147
REMARK   66  A    between atoms: _147  and  _148
REMARK   67  A    between atoms: _147  and  _150
REMARK   68  A    between atoms: _150  and  _151
REMARK   69  A    between atoms: _151  and  _152
REMARK   70  A    between atoms: _155  and  _157
REMARK   71  A    between atoms: _157  and  _158
REMARK   72  A    between atoms: _157  and  _160
REMARK   73  A    between atoms: _160  and  _161
REMARK   74  A    between atoms: _167  and  _169
REMARK   75  A    between atoms: _169  and  _170
REMARK   76  A    between atoms: _169  and  _172
REMARK   77  A    between atoms: _172  and  _173
REMARK   78  A    between atoms: _173  and  _174
REMARK   79  A    between atoms: _174  and  _175
REMARK   80  A    between atoms: _184  and  _186
REMARK   81  A    between atoms: _186  and  _187
REMARK   82  A    between atoms: _190  and  _192
REMARK   83  A    between atoms: _192  and  _193
REMARK   84  A    between atoms: _196  and  _198
REMARK   85  A    between atoms: _198  and  _199
REMARK   86  A    between atoms: _198  and  _201
REMARK   87  A    between atoms: _201  and  _202
REMARK   88  A    between atoms: _208  and  _210
REMARK   89  A    between atoms: _210  and  _211
REMARK   90  A    between atoms: _213  and  _215
REMARK   91  A    between atoms: _215  and  _216
REMARK   92  A    between atoms: _215  and  _218
REMARK   93  A    between atoms: _218  and  _219
REMARK   94  A    between atoms: _222  and  _224
REMARK   95  A    between atoms: _224  and  _225
REMARK   96  A    between atoms: _224  and  _227
REMARK   97  A    between atoms: _227  and  _228
REMARK   98  A    between atoms: _233  and  _235
REMARK   99  A    between atoms: _235  and  _236
REMARK  100  A    between atoms: _235  and  _238
REMARK  101  A    between atoms: _238  and  _239
REMARK  102  A    between atoms: _243  and  _244
REMARK  103  A    between atoms: _249  and  _251
REMARK  104  A    between atoms: _251  and  _252
REMARK  105  A    between atoms: _251  and  _254
REMARK  106  A    between atoms: _254  and  _255
REMARK  107  A    between atoms: _257  and  _259
REMARK  108  A    between atoms: _259  and  _260
REMARK  109  A    between atoms: _263  and  _265
REMARK  110  A    between atoms: _265  and  _266
REMARK  111  A    between atoms: _265  and  _268
REMARK  112  A    between atoms: _268  and  _269
REMARK                            x       y       z     vdW  Elec       q    Type
REMARK                         _______ _______ _______ _____ _____    ______ ____
ROOT
ATOM      1  CA  PHE A   3      43.552  61.197  18.719  0.00  0.00    +0.153 C 
ENDROOT
BRANCH   1   3
ATOM      2  C   ALA A   2      45.944  61.477  19.130  0.00  0.00    +0.241 C 
ATOM      3  N   PHE A   3      44.812  60.810  19.352  0.00  0.00    -0.297 N 
ATOM      4  H   PHE A   3      44.825  59.991  19.993  0.00  0.00    +0.150 HD
ATOM      5  O   ALA A   2      46.000  62.515  18.473  0.00  0.00    -0.273 OA
BRANCH   2   6
ATOM      6  CA  ALA A   2      47.222  60.898  19.745  0.00  0.00    +0.149 C 
ATOM      7  CB  ALA A   2      47.030  60.526  21.210  0.00  0.00    +0.031 C 
BRANCH   6   9
ATOM      8  C   ALA A   1      49.536  61.544  19.361  0.00  0.00    +0.238 C 
ATOM      9  N   ALA A   2      48.262  61.895  19.595  0.00  0.00    -0.297 N 
ATOM     10  H   ALA A   2      48.017  62.903  19.670  0.00  0.00    +0.150 HD
ATOM     11  O   ALA A   1      49.931  60.380  19.350  0.00  0.00    -0.274 OA
BRANCH   8  12
ATOM     12  CA  ALA A   1      50.496  62.694  19.108  0.00  0.00    +0.145 C 
ATOM     13  CB  ALA A   1      50.987  62.682  17.657  0.00  0.00    +0.028 C 
BRANCH  12  14
ATOM     14  N   ALA A   1      51.643  62.678  20.033  0.00  0.00    -0.238 NA
ATOM     15  H   ALA A   1      51.961  61.781  20.451  0.00  0.00    +0.142 HD
ENDBRANCH  12  14
ENDBRANCH   8  12
ENDBRANCH   6   9
ENDBRANCH   2   6
ENDBRANCH   1   3
BRANCH   1  16
ATOM     16  C   PHE A   3      42.417  61.548  19.722  0.00  0.00    +0.241 C 
ATOM     17  N   GLY A   4      42.768  61.975  20.922  0.00  0.00    -0.296 N 
ATOM     18  H   GLY A   4      43.766  62.187  21.125  0.00  0.00    +0.150 HD
ATOM     19  O   PHE A   3      41.222  61.430  19.395  0.00  0.00    -0.273 OA
BRANCH  17  20
ATOM     20  CA  GLY A   4      41.755  62.151  21.969  0.00  0.00    +0.163 C 
BRANCH  20  21
ATOM     21  C   GLY A   4      40.686  63.182  21.659  0.00  0.00    +0.229 C 
ATOM     22  O   GLY A   4      39.498  62.929  21.880  0.00  0.00    -0.286 OA
ENDBRANCH  20  21
ENDBRANCH  17  20
ENDBRANCH   1  16
BRANCH   1  23
ATOM     23  CB  PHE A   3      43.083  60.063  17.802  0.00  0.00    +0.055 C 
BRANCH  23  24
ATOM     24  CG  PHE A   3      43.945  59.844  16.576  0.00  0.00    -0.020 A 
ATOM     25  CD2 PHE A   3      44.897  58.823  16.573  0.00  0.00    -0.004 A 
ATOM     26  CE2 PHE A   3      45.660  58.558  15.436  0.00  0.00    -0.000 A 
ATOM     27  CZ  PHE A   3      45.481  59.326  14.276  0.00  0.00    -0.000 A 
ATOM     28  CE1 PHE A   3      44.518  60.342  14.254  0.00  0.00    -0.000 A 
ATOM     29  CD1 PHE A   3      43.753  60.591  15.402  0.00  0.00    -0.004 A 
ENDBRANCH  23  24
ENDBRANCH   1  23
TORSDOF 10
REMARK  Name = ../refined-set-2016/2qrl/2qrl_pocket.pdb
REMARK  112 active torsions:
REMARK  status: ('A' for Active; 'I' for Inactive)
REMARK    1  A    between atoms: _1  and  _3
REMARK    2  A    between atoms: _3  and  _4
REMARK    3  A    between atoms: _3  and  _6
REMARK    4  A    between atoms: _6  and  _7
REMARK    5  A    between atoms: _7  and  _8
REMARK    6  A    between atoms: _8  and  _9
REMARK    7  A    between atoms: _9  and  _10
REMARK    8  A    between atoms: _14  and  _16
REMARK    9  A    between atoms: _16  and  _17
REMARK   10  A    between atoms: _16  and  _19
REMARK   11  A    between atoms: _19  and  _20
REMARK   12  A    between atoms: _20  and  _21
REMARK   13  A    between atoms: _24  and  _26
REMARK   14  A    between atoms: _26  and  _27
REMARK   15  A    between atoms: _26  and  _29
REMARK   16  A    between atoms: _29  and  _30
REMARK   17  A    between atoms: _30  and  _31
REMARK   18  A    between atoms: _31  and  _32
REMARK   19  A    between atoms: _41  and  _43
REMARK   20  A    between atoms: _43  and  _44
REMARK   21  A    between atoms: _43  and  _46
REMARK   22  A    between atoms: _46  and  _47
REMARK   23  A    between atoms: _50  and  _52
REMARK   24  A    between atoms: _52  and  _53
REMARK   25  A    between atoms: _52  and  _55
REMARK   26  A    between atoms: _55  and  _56
REMARK   27  A    between atoms: _56  and  _57
REMARK   28  A    between atoms: _57  and  _58
REMARK   29  A    between atoms: _58  and  _59
REMARK   30  A    between atoms: _63  and  _65
REMARK   31  A    between atoms: _65  and  _66
REMARK   32  A    between atoms: _65  and  _68
REMARK   33  A    between atoms: _68  and  _69
REMARK   34  A    between atoms: _69  and  _70
REMARK   35  A    between atoms: _73  and  _75
REMARK   36  A    between atoms: _75  and  _76
REMARK   37  A    between atoms: _75  and  _78
REMARK   38  A    between atoms: _78  and  _79
REMARK   39  A    between atoms: _85  and  _87
REMARK   40  A    between atoms: _87  and  _88
REMARK   41  A    between atoms: _91  and  _93
REMARK   42  A    between atoms: _93  and  _94
REMARK   43  A    between atoms: _93  and  _96
REMARK   44  A    between atoms: _96  and  _97
REMARK   45  A    between atoms: _102  and  _104
REMARK   46  A    between atoms: _104  and  _105
REMARK   47  A    between atoms: _104  and  _107
REMARK   48  A    between atoms: _107  and  _108
REMARK   49  A    between atoms: _108  and  _109
REMARK   50  A    between atoms: _109  and  _110
REMARK   51  A    between atoms: _110  and  _111
REMARK   52  A    between atoms: _115  and  _117
REMARK   53  A    between atoms: _117  and  _118
REMARK   54  A    between atoms: _117  and  _120
REMARK   55  A    between atoms: _120  and  _121
REMARK   56  A    between atoms: _121  and  _122
REMARK   57  A    between atoms: _127  and  _129
REMARK   58  A    between atoms: _129  and  _130
REMARK   59  A    between atoms: _129  and  _132
REMARK   60  A    between atoms: _132  and  _133
REMARK   61  A    between atoms: _136  and  _138
REMARK   62  A    between atoms: _138  and  _139
REMARK   63  A    between atoms: _138  and  _141
REMARK   64  A    between atoms: _141  and  _142
REMARK   65  A    between atoms: _145  and  _147
REMARK   66  A    between atoms: _147  and  _148
REMARK   67  A    between atoms: _147  and  _150
REMARK   68  A    between atoms: _150  and  _151
REMARK   69  A    between atoms: _151  and  _152
REMARK   70  A    between atoms: _155  and  _157
REMARK   71  A    between atoms: _157  and  _158
REMARK   72  A    between atoms: _157  and  _160
REMARK   73  A    between atoms: _160  and  _161
REMARK   74  A    between atoms: _167  and  _169
REMARK   75  A    between atoms: _169  and  _170
REMARK   76  A    between atoms: _169  and  _172
REMARK   77  A    between atoms: _172  and  _173
REMARK   78  A    between atoms: _173  and  _174
REMARK   79  A    between atoms: _174  and  _175
REMARK   80  A    between atoms: _184  and  _186
REMARK   81  A    between atoms: _186  and  _187
REMARK   82  A    between atoms: _190  and  _192
REMARK   83  A    between atoms: _192  and  _193
REMARK   84  A    between atoms: _196  and  _198
REMARK   85  A    between atoms: _198  and  _199
REMARK   86  A    between atoms: _198  and  _201
REMARK   87  A    between atoms: _201  and  _202
REMARK   88  A    between atoms: _208  and  _210
REMARK   89  A    between atoms: _210  and  _211
REMARK   90  A    between atoms: _213  and  _215
REMARK   91  A    between atoms: _215  and  _216
REMARK   92  A    between atoms: _215  and  _218
REMARK   93  A    between atoms: _218  and  _219
REMARK   94  A    between atoms: _222  and  _224
REMARK   95  A    between atoms: _224  and  _225
REMARK   96  A    between atoms: _224  and  _227
REMARK   97  A    between atoms: _227  and  _228
REMARK   98  A    between atoms: _233  and  _235
REMARK   99  A    between atoms: _235  and  _236
REMARK  100  A    between atoms: _235  and  _238
REMARK  101  A    between atoms: _238  and  _239
REMARK  102  A    between atoms: _243  and  _244
REMARK  103  A    between atoms: _249  and  _251
REMARK  104  A    between atoms: _251  and  _252
REMARK  105  A    between atoms: _251  and  _254
REMARK  106  A    between atoms: _254  and  _255
REMARK  107  A    between atoms: _257  and  _259
REMARK  108  A    between atoms: _259  and  _260
REMARK  109  A    between atoms: _263  and  _265
REMARK  110  A    between atoms: _265  and  _266
REMARK  111  A    between atoms: _265  and  _268
REMARK  112  A    between atoms: _268  and  _269
REMARK                            x       y       z     vdW  Elec       q    Type
REMARK                         _______ _______ _______ _____ _____    ______ ____
ROOT
ATOM      1  C   HIS A   2      36.811  55.274  16.322  0.00  0.00    +0.241 C 
ATOM      2  N   LEU A   3      36.345  55.996  17.342  0.00  0.00    -0.297 N 
ATOM      3  H   LEU A   3      36.531  55.685  18.317  0.00  0.00    +0.150 HD
ATOM      4  O   HIS A   2      36.618  55.587  15.126  0.00  0.00    -0.273 OA
ENDROOT
BRANCH   1   5
ATOM      5  CA  HIS A   2      37.603  54.013  16.703  0.00  0.00    +0.155 C 
BRANCH   5   8
ATOM      6  C   ASP A   1      37.706  52.871  18.860  0.00  0.00    +0.239 C 
ATOM      7  O   ASP A   1      38.928  53.068  18.979  0.00  0.00    -0.274 OA
ATOM      8  N   HIS A   2      37.003  53.322  17.830  0.00  0.00    -0.297 N 
ATOM      9  H   HIS A   2      35.974  53.174  17.830  0.00  0.00    +0.150 HD
BRANCH   6  10
ATOM     10  CA  ASP A   1      36.899  52.121  19.933  0.00  0.00    +0.156 C 
BRANCH  10  11
ATOM     11  N   ASP A   1      35.487  51.839  19.571  0.00  0.00    -0.238 NA
ATOM     12  H   ASP A   1      35.252  50.961  19.065  0.00  0.00    +0.142 HD
ENDBRANCH  10  11
BRANCH  10  13
ATOM     13  CB  ASP A   1      37.596  50.812  20.359  0.00  0.00    +0.140 C 
BRANCH  13  14
ATOM     14  CG  ASP A   1      37.934  49.897  19.182  0.00  0.00    +0.367 C 
ATOM     15  OD2 ASP A   1      38.455  48.789  19.444  0.00  0.00    -0.246 OA
ATOM     16  OD1 ASP A   1      37.700  50.253  18.013  0.00  0.00    -0.246 OA
ENDBRANCH  13  14
ENDBRANCH  10  13
ENDBRANCH   6  10
ENDBRANCH   5   8
BRANCH   5  17
ATOM     17  CB  HIS A   2      37.715  53.042  15.522  0.00  0.00    +0.076 C 
BRANCH  17  18
ATOM     18  CG  HIS A   2      36.460  52.271  15.245  0.00  0.00    +0.082 A 
ATOM     19  ND1 HIS A   2      36.115  51.122  15.929  0.00  0.00    -0.227 NA
ATOM     20  CE1 HIS A   2      34.959  50.669  15.471  0.00  0.00    +0.199 A 
ATOM     21  NE2 HIS A   2      34.560  51.459  14.490  0.00  0.00    -0.221 NA
ATOM     22  CD2 HIS A   2      35.481  52.469  14.328  0.00  0.00    +0.115 A 
ENDBRANCH  17  18
ENDBRANCH   5  17
ENDBRANCH   1   5
BRANCH   2  23
ATOM     23  CA  LEU A   3      35.577  57.218  17.110  0.00  0.00    +0.149 C 
BRANCH  23  24
ATOM     24  C   LEU A   3      36.255  58.258  16.209  0.00  0.00    +0.244 C 
ATOM     25  N   PRO A   4      37.582  58.474  16.336  0.00  0.00    -0.272 N 
ATOM     26  CD  PRO A   4      38.547  57.921  17.314  0.00  0.00    +0.094 C 
ATOM     27  CG  PRO A   4      39.684  58.945  17.246  0.00  0.00    +0.024 C 
ATOM     28  CB  PRO A   4      39.705  59.336  15.752  0.00  0.00    +0.031 C 
ATOM     29  CA  PRO A   4      38.220  59.465  15.433  0.00  0.00    +0.152 C 
ATOM     30  O   LEU A   3      35.576  58.887  15.416  0.00  0.00    -0.273 OA
BRANCH  29  31
ATOM     31  C   PRO A   4      37.995  59.209  13.942  0.00  0.00    +0.241 C 
ATOM     32  N   SER A   5      37.761  57.950  13.600  0.00  0.00    -0.296 N 
ATOM     33  H   SER A   5      37.782  57.221  14.341  0.00  0.00    +0.150 HD
ATOM     34  O   PRO A   4      38.046  60.158  13.149  0.00  0.00    -0.273 OA
BRANCH  32  35
ATOM     35  CA  SER A   5      37.472  57.540  12.215  0.00  0.00    +0.166 C 
BRANCH  35  36
ATOM     36  C   SER A   5      36.134  58.094  11.691  0.00  0.00    +0.229 C 
ATOM     37  O   SER A   5      35.846  58.002  10.494  0.00  0.00    -0.286 OA
ENDBRANCH  35  36
BRANCH  35  38
ATOM     38  CB  SER A   5      37.553  56.022  12.077  0.00  0.00    +0.165 C 
BRANCH  38  39
ATOM     39  OG  SER A   5      38.885  55.614  12.333  0.00  0.00    -0.380 OA
ATOM     40  H   SER A   5      39.141  55.883  13.251  0.00  0.00    +0.211 HD
ENDBRANCH  38  39
ENDBRANCH  35  38
ENDBRANCH  32  35
ENDBRANCH  29  31
ENDBRANCH  23  24
BRANCH  23  41
ATOM     41  CB  LEU A   3      35.102  57.858  18.412  0.00  0.00    +0.029 C 
BRANCH  41  42
ATOM     42  CG  LEU A   3      33.990  57.041  19.076  0.00  0.00    +0.002 C 
ATOM     43  CD2 LEU A   3      33.813  57.465  20.549  0.00  0.00    +0.000 C 
ATOM     44  CD1 LEU A   3      32.684  57.185  18.290  0.00  0.00    +0.000 C 
ENDBRANCH  41  42
ENDBRANCH  23  41
ENDBRANCH   2  23
TORSDOF 17
REMARK  Name = ../refined-set-2016/2qrl/2qrl_pocket.pdb
REMARK  112 active torsions:
REMARK  status: ('A' for Active; 'I' for Inactive)
REMARK    1  A    between atoms: _1  and  _3
REMARK    2  A    between atoms: _3  and  _4
REMARK    3  A    between atoms: _3  and  _6
REMARK    4  A    between atoms: _6  and  _7
REMARK    5  A    between atoms: _7  and  _8
REMARK    6  A    between atoms: _8  and  _9
REMARK    7  A    between atoms: _9  and  _10
REMARK    8  A    between atoms: _14  and  _16
REMARK    9  A    between atoms: _16  and  _17
REMARK   10  A    between atoms: _16  and  _19
REMARK   11  A    between atoms: _19  and  _20
REMARK   12  A    between atoms: _20  and  _21
REMARK   13  A    between atoms: _24  and  _26
REMARK   14  A    between atoms: _26  and  _27
REMARK   15  A    between atoms: _26  and  _29
REMARK   16  A    between atoms: _29  and  _30
REMARK   17  A    between atoms: _30  and  _31
REMARK   18  A    between atoms: _31  and  _32
REMARK   19  A    between atoms: _41  and  _43
REMARK   20  A    between atoms: _43  and  _44
REMARK   21  A    between atoms: _43  and  _46
REMARK   22  A    between atoms: _46  and  _47
REMARK   23  A    between atoms: _50  and  _52
REMARK   24  A    between atoms: _52  and  _53
REMARK   25  A    between atoms: _52  and  _55
REMARK   26  A    between atoms: _55  and  _56
REMARK   27  A    between atoms: _56  and  _57
REMARK   28  A    between atoms: _57  and  _58
REMARK   29  A    between atoms: _58  and  _59
REMARK   30  A    between atoms: _63  and  _65
REMARK   31  A    between atoms: _65  and  _66
REMARK   32  A    between atoms: _65  and  _68
REMARK   33  A    between atoms: _68  and  _69
REMARK   34  A    between atoms: _69  and  _70
REMARK   35  A    between atoms: _73  and  _75
REMARK   36  A    between atoms: _75  and  _76
REMARK   37  A    between atoms: _75  and  _78
REMARK   38  A    between atoms: _78  and  _79
REMARK   39  A    between atoms: _85  and  _87
REMARK   40  A    between atoms: _87  and  _88
REMARK   41  A    between atoms: _91  and  _93
REMARK   42  A    between atoms: _93  and  _94
REMARK   43  A    between atoms: _93  and  _96
REMARK   44  A    between atoms: _96  and  _97
REMARK   45  A    between atoms: _102  and  _104
REMARK   46  A    between atoms: _104  and  _105
REMARK   47  A    between atoms: _104  and  _107
REMARK   48  A    between atoms: _107  and  _108
REMARK   49  A    between atoms: _108  and  _109
REMARK   50  A    between atoms: _109  and  _110
REMARK   51  A    between atoms: _110  and  _111
REMARK   52  A    between atoms: _115  and  _117
REMARK   53  A    between atoms: _117  and  _118
REMARK   54  A    between atoms: _117  and  _120
REMARK   55  A    between atoms: _120  and  _121
REMARK   56  A    between atoms: _121  and  _122
REMARK   57  A    between atoms: _127  and  _129
REMARK   58  A    between atoms: _129  and  _130
REMARK   59  A    between atoms: _129  and  _132
REMARK   60  A    between atoms: _132  and  _133
REMARK   61  A    between atoms: _136  and  _138
REMARK   62  A    between atoms: _138  and  _139
REMARK   63  A    between atoms: _138  and  _141
REMARK   64  A    between atoms: _141  and  _142
REMARK   65  A    between atoms: _145  and  _147
REMARK   66  A    between atoms: _147  and  _148
REMARK   67  A    between atoms: _147  and  _150
REMARK   68  A    between atoms: _150  and  _151
REMARK   69  A    between atoms: _151  and  _152
REMARK   70  A    between atoms: _155  and  _157
REMARK   71  A    between atoms: _157  and  _158
REMARK   72  A    between atoms: _157  and  _160
REMARK   73  A    between atoms: _160  and  _161
REMARK   74  A    between atoms: _167  and  _169
REMARK   75  A    between atoms: _169  and  _170
REMARK   76  A    between atoms: _169  and  _172
REMARK   77  A    between atoms: _172  and  _173
REMARK   78  A    between atoms: _173  and  _174
REMARK   79  A    between atoms: _174  and  _175
REMARK   80  A    between atoms: _184  and  _186
REMARK   81  A    between atoms: _186  and  _187
REMARK   82  A    between atoms: _190  and  _192
REMARK   83  A    between atoms: _192  and  _193
REMARK   84  A    between atoms: _196  and  _198
REMARK   85  A    between atoms: _198  and  _199
REMARK   86  A    between atoms: _198  and  _201
REMARK   87  A    between atoms: _201  and  _202
REMARK   88  A    between atoms: _208  and  _210
REMARK   89  A    between atoms: _210  and  _211
REMARK   90  A    between atoms: _213  and  _215
REMARK   91  A    between atoms: _215  and  _216
REMARK   92  A    between atoms: _215  and  _218
REMARK   93  A    between atoms: _218  and  _219
REMARK   94  A    between atoms: _222  and  _224
REMARK   95  A    between atoms: _224  and  _225
REMARK   96  A    between atoms: _224  and  _227
REMARK   97  A    between atoms: _227  and  _228
REMARK   98  A    between atoms: _233  and  _235
REMARK   99  A    between atoms: _235  and  _236
REMARK  100  A    between atoms: _235  and  _238
REMARK  101  A    between atoms: _238  and  _239
REMARK  102  A    between atoms: _243  and  _244
REMARK  103  A    between atoms: _249  and  _251
REMARK  104  A    between atoms: _251  and  _252
REMARK  105  A    between atoms: _251  and  _254
REMARK  106  A    between atoms: _254  and  _255
REMARK  107  A    between atoms: _257  and  _259
REMARK  108  A    between atoms: _259  and  _260
REMARK  109  A    between atoms: _263  and  _265
REMARK  110  A    between atoms: _265  and  _266
REMARK  111  A    between atoms: _265  and  _268
REMARK  112  A    between atoms: _268  and  _269
REMARK                            x       y       z     vdW  Elec       q    Type
REMARK                         _______ _______ _______ _____ _____    ______ ____
ROOT
ATOM      1  CA  ALA A   1      41.500  63.655  13.103  0.00  0.00    +0.133 C 
ATOM      2  CB  ALA A   1      40.891  62.279  13.166  0.00  0.00    +0.027 C 
ENDROOT
BRANCH   1   3
ATOM      3  N   ALA A   1      40.704  64.563  12.240  0.00  0.00    -0.239 NA
ATOM      4  H   ALA A   1      39.841  64.208  11.780  0.00  0.00    +0.142 HD
ENDBRANCH   1   3
BRANCH   1   5
ATOM      5  C   ALA A   1      42.936  63.569  12.569  0.00  0.00    +0.224 C 
ATOM      6  O   ALA A   1      43.884  63.649  13.335  0.00  0.00    -0.287 OA
ENDBRANCH   1   5
TORSDOF 2
REMARK  Name = ../refined-set-2016/2qrl/2qrl_pocket.pdb
REMARK  112 active torsions:
REMARK  status: ('A' for Active; 'I' for Inactive)
REMARK    1  A    between atoms: _1  and  _3
REMARK    2  A    between atoms: _3  and  _4
REMARK    3  A    between atoms: _3  and  _6
REMARK    4  A    between atoms: _6  and  _7
REMARK    5  A    between atoms: _7  and  _8
REMARK    6  A    between atoms: _8  and  _9
REMARK    7  A    between atoms: _9  and  _10
REMARK    8  A    between atoms: _14  and  _16
REMARK    9  A    between atoms: _16  and  _17
REMARK   10  A    between atoms: _16  and  _19
REMARK   11  A    between atoms: _19  and  _20
REMARK   12  A    between atoms: _20  and  _21
REMARK   13  A    between atoms: _24  and  _26
REMARK   14  A    between atoms: _26  and  _27
REMARK   15  A    between atoms: _26  and  _29
REMARK   16  A    between atoms: _29  and  _30
REMARK   17  A    between atoms: _30  and  _31
REMARK   18  A    between atoms: _31  and  _32
REMARK   19  A    between atoms: _41  and  _43
REMARK   20  A    between atoms: _43  and  _44
REMARK   21  A    between atoms: _43  and  _46
REMARK   22  A    between atoms: _46  and  _47
REMARK   23  A    between atoms: _50  and  _52
REMARK   24  A    between atoms: _52  and  _53
REMARK   25  A    between atoms: _52  and  _55
REMARK   26  A    between atoms: _55  and  _56
REMARK   27  A    between atoms: _56  and  _57
REMARK   28  A    between atoms: _57  and  _58
REMARK   29  A    between atoms: _58  and  _59
REMARK   30  A    between atoms: _63  and  _65
REMARK   31  A    between atoms: _65  and  _66
REMARK   32  A    between atoms: _65  and  _68
REMARK   33  A    between atoms: _68  and  _69
REMARK   34  A    between atoms: _69  and  _70
REMARK   35  A    between atoms: _73  and  _75
REMARK   36  A    between atoms: _75  and  _76
REMARK   37  A    between atoms: _75  and  _78
REMARK   38  A    between atoms: _78  and  _79
REMARK   39  A    between atoms: _85  and  _87
REMARK   40  A    between atoms: _87  and  _88
REMARK   41  A    between atoms: _91  and  _93
REMARK   42  A    between atoms: _93  and  _94
REMARK   43  A    between atoms: _93  and  _96
REMARK   44  A    between atoms: _96  and  _97
REMARK   45  A    between atoms: _102  and  _104
REMARK   46  A    between atoms: _104  and  _105
REMARK   47  A    between atoms: _104  and  _107
REMARK   48  A    between atoms: _107  and  _108
REMARK   49  A    between atoms: _108  and  _109
REMARK   50  A    between atoms: _109  and  _110
REMARK   51  A    between atoms: _110  and  _111
REMARK   52  A    between atoms: _115  and  _117
REMARK   53  A    between atoms: _117  and  _118
REMARK   54  A    between atoms: _117  and  _120
REMARK   55  A    between atoms: _120  and  _121
REMARK   56  A    between atoms: _121  and  _122
REMARK   57  A    between atoms: _127  and  _129
REMARK   58  A    between atoms: _129  and  _130
REMARK   59  A    between atoms: _129  and  _132
REMARK   60  A    between atoms: _132  and  _133
REMARK   61  A    between atoms: _136  and  _138
REMARK   62  A    between atoms: _138  and  _139
REMARK   63  A    between atoms: _138  and  _141
REMARK   64  A    between atoms: _141  and  _142
REMARK   65  A    between atoms: _145  and  _147
REMARK   66  A    between atoms: _147  and  _148
REMARK   67  A    between atoms: _147  and  _150
REMARK   68  A    between atoms: _150  and  _151
REMARK   69  A    between atoms: _151  and  _152
REMARK   70  A    between atoms: _155  and  _157
REMARK   71  A    between atoms: _157  and  _158
REMARK   72  A    between atoms: _157  and  _160
REMARK   73  A    between atoms: _160  and  _161
REMARK   74  A    between atoms: _167  and  _169
REMARK   75  A    between atoms: _169  and  _170
REMARK   76  A    between atoms: _169  and  _172
REMARK   77  A    between atoms: _172  and  _173
REMARK   78  A    between atoms: _173  and  _174
REMARK   79  A    between atoms: _174  and  _175
REMARK   80  A    between atoms: _184  and  _186
REMARK   81  A    between atoms: _186  and  _187
REMARK   82  A    between atoms: _190  and  _192
REMARK   83  A    between atoms: _192  and  _193
REMARK   84  A    between atoms: _196  and  _198
REMARK   85  A    between atoms: _198  and  _199
REMARK   86  A    between atoms: _198  and  _201
REMARK   87  A    between atoms: _201  and  _202
REMARK   88  A    between atoms: _208  and  _210
REMARK   89  A    between atoms: _210  and  _211
REMARK   90  A    between atoms: _213  and  _215
REMARK   91  A    between atoms: _215  and  _216
REMARK   92  A    between atoms: _215  and  _218
REMARK   93  A    between atoms: _218  and  _219
REMARK   94  A    between atoms: _222  and  _224
REMARK   95  A    between atoms: _224  and  _225
REMARK   96  A    between atoms: _224  and  _227
REMARK   97  A    between atoms: _227  and  _228
REMARK   98  A    between atoms: _233  and  _235
REMARK   99  A    between atoms: _235  and  _236
REMARK  100  A    between atoms: _235  and  _238
REMARK  101  A    between atoms: _238  and  _239
REMARK  102  A    between atoms: _243  and  _244
REMARK  103  A    between atoms: _249  and  _251
REMARK  104  A    between atoms: _251  and  _252
REMARK  105  A    between atoms: _251  and  _254
REMARK  106  A    between atoms: _254  and  _255
REMARK  107  A    between atoms: _257  and  _259
REMARK  108  A    between atoms: _259  and  _260
REMARK  109  A    between atoms: _263  and  _265
REMARK  110  A    between atoms: _265  and  _266
REMARK  111  A    between atoms: _265  and  _268
REMARK  112  A    between atoms: _268  and  _269
REMARK                            x       y       z     vdW  Elec       q    Type
REMARK                         _______ _______ _______ _____ _____    ______ ____
ROOT
ATOM      1  CB  PHE A   1      46.904  62.796  14.279  0.00  0.00    +0.051 C 
ENDROOT
BRANCH   1   2
ATOM      2  CG  PHE A   1      47.928  61.723  14.571  0.00  0.00    -0.020 A 
ATOM      3  CD2 PHE A   1      48.004  61.130  15.839  0.00  0.00    -0.004 A 
ATOM      4  CE2 PHE A   1      48.981  60.120  16.118  0.00  0.00    -0.000 A 
ATOM      5  CZ  PHE A   1      49.881  59.733  15.119  0.00  0.00    -0.000 A 
ATOM      6  CE1 PHE A   1      49.804  60.325  13.850  0.00  0.00    -0.000 A 
ATOM      7  CD1 PHE A   1      48.828  61.331  13.589  0.00  0.00    -0.004 A 
ENDBRANCH   1   2
BRANCH   1   8
ATOM      8  CA  PHE A   1      47.332  64.196  14.737  0.00  0.00    +0.137 C 
BRANCH   8   9
ATOM      9  N   PHE A   1      46.296  65.170  14.442  0.00  0.00    -0.239 NA
ATOM     10  H   PHE A   1      45.431  64.861  13.954  0.00  0.00    +0.142 HD
ENDBRANCH   8   9
BRANCH   8  11
ATOM     11  C   PHE A   1      48.642  64.589  14.059  0.00  0.00    +0.224 C 
ATOM     12  O   PHE A   1      49.698  64.621  14.705  0.00  0.00    -0.287 OA
ENDBRANCH   8  11
ENDBRANCH   1   8
TORSDOF 4
REMARK  Name = ../refined-set-2016/2qrl/2qrl_pocket.pdb
REMARK  112 active torsions:
REMARK  status: ('A' for Active; 'I' for Inactive)
REMARK    1  A    between atoms: _1  and  _3
REMARK    2  A    between atoms: _3  and  _4
REMARK    3  A    between atoms: _3  and  _6
REMARK    4  A    between atoms: _6  and  _7
REMARK    5  A    between atoms: _7  and  _8
REMARK    6  A    between atoms: _8  and  _9
REMARK    7  A    between atoms: _9  and  _10
REMARK    8  A    between atoms: _14  and  _16
REMARK    9  A    between atoms: _16  and  _17
REMARK   10  A    between atoms: _16  and  _19
REMARK   11  A    between atoms: _19  and  _20
REMARK   12  A    between atoms: _20  and  _21
REMARK   13  A    between atoms: _24  and  _26
REMARK   14  A    between atoms: _26  and  _27
REMARK   15  A    between atoms: _26  and  _29
REMARK   16  A    between atoms: _29  and  _30
REMARK   17  A    between atoms: _30  and  _31
REMARK   18  A    between atoms: _31  and  _32
REMARK   19  A    between atoms: _41  and  _43
REMARK   20  A    between atoms: _43  and  _44
REMARK   21  A    between atoms: _43  and  _46
REMARK   22  A    between atoms: _46  and  _47
REMARK   23  A    between atoms: _50  and  _52
REMARK   24  A    between atoms: _52  and  _53
REMARK   25  A    between atoms: _52  and  _55
REMARK   26  A    between atoms: _55  and  _56
REMARK   27  A    between atoms: _56  and  _57
REMARK   28  A    between atoms: _57  and  _58
REMARK   29  A    between atoms: _58  and  _59
REMARK   30  A    between atoms: _63  and  _65
REMARK   31  A    between atoms: _65  and  _66
REMARK   32  A    between atoms: _65  and  _68
REMARK   33  A    between atoms: _68  and  _69
REMARK   34  A    between atoms: _69  and  _70
REMARK   35  A    between atoms: _73  and  _75
REMARK   36  A    between atoms: _75  and  _76
REMARK   37  A    between atoms: _75  and  _78
REMARK   38  A    between atoms: _78  and  _79
REMARK   39  A    between atoms: _85  and  _87
REMARK   40  A    between atoms: _87  and  _88
REMARK   41  A    between atoms: _91  and  _93
REMARK   42  A    between atoms: _93  and  _94
REMARK   43  A    between atoms: _93  and  _96
REMARK   44  A    between atoms: _96  and  _97
REMARK   45  A    between atoms: _102  and  _104
REMARK   46  A    between atoms: _104  and  _105
REMARK   47  A    between atoms: _104  and  _107
REMARK   48  A    between atoms: _107  and  _108
REMARK   49  A    between atoms: _108  and  _109
REMARK   50  A    between atoms: _109  and  _110
REMARK   51  A    between atoms: _110  and  _111
REMARK   52  A    between atoms: _115  and  _117
REMARK   53  A    between atoms: _117  and  _118
REMARK   54  A    between atoms: _117  and  _120
REMARK   55  A    between atoms: _120  and  _121
REMARK   56  A    between atoms: _121  and  _122
REMARK   57  A    between atoms: _127  and  _129
REMARK   58  A    between atoms: _129  and  _130
REMARK   59  A    between atoms: _129  and  _132
REMARK   60  A    between atoms: _132  and  _133
REMARK   61  A    between atoms: _136  and  _138
REMARK   62  A    between atoms: _138  and  _139
REMARK   63  A    between atoms: _138  and  _141
REMARK   64  A    between atoms: _141  and  _142
REMARK   65  A    between atoms: _145  and  _147
REMARK   66  A    between atoms: _147  and  _148
REMARK   67  A    between atoms: _147  and  _150
REMARK   68  A    between atoms: _150  and  _151
REMARK   69  A    between atoms: _151  and  _152
REMARK   70  A    between atoms: _155  and  _157
REMARK   71  A    between atoms: _157  and  _158
REMARK   72  A    between atoms: _157  and  _160
REMARK   73  A    between atoms: _160  and  _161
REMARK   74  A    between atoms: _167  and  _169
REMARK   75  A    between atoms: _169  and  _170
REMARK   76  A    between atoms: _169  and  _172
REMARK   77  A    between atoms: _172  and  _173
REMARK   78  A    between atoms: _173  and  _174
REMARK   79  A    between atoms: _174  and  _175
REMARK   80  A    between atoms: _184  and  _186
REMARK   81  A    between atoms: _186  and  _187
REMARK   82  A    between atoms: _190  and  _192
REMARK   83  A    between atoms: _192  and  _193
REMARK   84  A    between atoms: _196  and  _198
REMARK   85  A    between atoms: _198  and  _199
REMARK   86  A    between atoms: _198  and  _201
REMARK   87  A    between atoms: _201  and  _202
REMARK   88  A    between atoms: _208  and  _210
REMARK   89  A    between atoms: _210  and  _211
REMARK   90  A    between atoms: _213  and  _215
REMARK   91  A    between atoms: _215  and  _216
REMARK   92  A    between atoms: _215  and  _218
REMARK   93  A    between atoms: _218  and  _219
REMARK   94  A    between atoms: _222  and  _224
REMARK   95  A    between atoms: _224  and  _225
REMARK   96  A    between atoms: _224  and  _227
REMARK   97  A    between atoms: _227  and  _228
REMARK   98  A    between atoms: _233  and  _235
REMARK   99  A    between atoms: _235  and  _236
REMARK  100  A    between atoms: _235  and  _238
REMARK  101  A    between atoms: _238  and  _239
REMARK  102  A    between atoms: _243  and  _244
REMARK  103  A    between atoms: _249  and  _251
REMARK  104  A    between atoms: _251  and  _252
REMARK  105  A    between atoms: _251  and  _254
REMARK  106  A    between atoms: _254  and  _255
REMARK  107  A    between atoms: _257  and  _259
REMARK  108  A    between atoms: _259  and  _260
REMARK  109  A    between atoms: _263  and  _265
REMARK  110  A    between atoms: _265  and  _266
REMARK  111  A    between atoms: _265  and  _268
REMARK  112  A    between atoms: _268  and  _269
REMARK                            x       y       z     vdW  Elec       q    Type
REMARK                         _______ _______ _______ _____ _____    ______ ____
ROOT
ATOM      1  O   HOH     1      51.039  50.645  18.211  0.00  0.00    +0.000 OA
ENDROOT
TORSDOF 0
REMARK  Name = ../refined-set-2016/2qrl/2qrl_pocket.pdb
REMARK  112 active torsions:
REMARK  status: ('A' for Active; 'I' for Inactive)
REMARK    1  A    between atoms: _1  and  _3
REMARK    2  A    between atoms: _3  and  _4
REMARK    3  A    between atoms: _3  and  _6
REMARK    4  A    between atoms: _6  and  _7
REMARK    5  A    between atoms: _7  and  _8
REMARK    6  A    between atoms: _8  and  _9
REMARK    7  A    between atoms: _9  and  _10
REMARK    8  A    between atoms: _14  and  _16
REMARK    9  A    between atoms: _16  and  _17
REMARK   10  A    between atoms: _16  and  _19
REMARK   11  A    between atoms: _19  and  _20
REMARK   12  A    between atoms: _20  and  _21
REMARK   13  A    between atoms: _24  and  _26
REMARK   14  A    between atoms: _26  and  _27
REMARK   15  A    between atoms: _26  and  _29
REMARK   16  A    between atoms: _29  and  _30
REMARK   17  A    between atoms: _30  and  _31
REMARK   18  A    between atoms: _31  and  _32
REMARK   19  A    between atoms: _41  and  _43
REMARK   20  A    between atoms: _43  and  _44
REMARK   21  A    between atoms: _43  and  _46
REMARK   22  A    between atoms: _46  and  _47
REMARK   23  A    between atoms: _50  and  _52
REMARK   24  A    between atoms: _52  and  _53
REMARK   25  A    between atoms: _52  and  _55
REMARK   26  A    between atoms: _55  and  _56
REMARK   27  A    between atoms: _56  and  _57
REMARK   28  A    between atoms: _57  and  _58
REMARK   29  A    between atoms: _58  and  _59
REMARK   30  A    between atoms: _63  and  _65
REMARK   31  A    between atoms: _65  and  _66
REMARK   32  A    between atoms: _65  and  _68
REMARK   33  A    between atoms: _68  and  _69
REMARK   34  A    between atoms: _69  and  _70
REMARK   35  A    between atoms: _73  and  _75
REMARK   36  A    between atoms: _75  and  _76
REMARK   37  A    between atoms: _75  and  _78
REMARK   38  A    between atoms: _78  and  _79
REMARK   39  A    between atoms: _85  and  _87
REMARK   40  A    between atoms: _87  and  _88
REMARK   41  A    between atoms: _91  and  _93
REMARK   42  A    between atoms: _93  and  _94
REMARK   43  A    between atoms: _93  and  _96
REMARK   44  A    between atoms: _96  and  _97
REMARK   45  A    between atoms: _102  and  _104
REMARK   46  A    between atoms: _104  and  _105
REMARK   47  A    between atoms: _104  and  _107
REMARK   48  A    between atoms: _107  and  _108
REMARK   49  A    between atoms: _108  and  _109
REMARK   50  A    between atoms: _109  and  _110
REMARK   51  A    between atoms: _110  and  _111
REMARK   52  A    between atoms: _115  and  _117
REMARK   53  A    between atoms: _117  and  _118
REMARK   54  A    between atoms: _117  and  _120
REMARK   55  A    between atoms: _120  and  _121
REMARK   56  A    between atoms: _121  and  _122
REMARK   57  A    between atoms: _127  and  _129
REMARK   58  A    between atoms: _129  and  _130
REMARK   59  A    between atoms: _129  and  _132
REMARK   60  A    between atoms: _132  and  _133
REMARK   61  A    between atoms: _136  and  _138
REMARK   62  A    between atoms: _138  and  _139
REMARK   63  A    between atoms: _138  and  _141
REMARK   64  A    between atoms: _141  and  _142
REMARK   65  A    between atoms: _145  and  _147
REMARK   66  A    between atoms: _147  and  _148
REMARK   67  A    between atoms: _147  and  _150
REMARK   68  A    between atoms: _150  and  _151
REMARK   69  A    between atoms: _151  and  _152
REMARK   70  A    between atoms: _155  and  _157
REMARK   71  A    between atoms: _157  and  _158
REMARK   72  A    between atoms: _157  and  _160
REMARK   73  A    between atoms: _160  and  _161
REMARK   74  A    between atoms: _167  and  _169
REMARK   75  A    between atoms: _169  and  _170
REMARK   76  A    between atoms: _169  and  _172
REMARK   77  A    between atoms: _172  and  _173
REMARK   78  A    between atoms: _173  and  _174
REMARK   79  A    between atoms: _174  and  _175
REMARK   80  A    between atoms: _184  and  _186
REMARK   81  A    between atoms: _186  and  _187
REMARK   82  A    between atoms: _190  and  _192
REMARK   83  A    between atoms: _192  and  _193
REMARK   84  A    between atoms: _196  and  _198
REMARK   85  A    between atoms: _198  and  _199
REMARK   86  A    between atoms: _198  and  _201
REMARK   87  A    between atoms: _201  and  _202
REMARK   88  A    between atoms: _208  and  _210
REMARK   89  A    between atoms: _210  and  _211
REMARK   90  A    between atoms: _213  and  _215
REMARK   91  A    between atoms: _215  and  _216
REMARK   92  A    between atoms: _215  and  _218
REMARK   93  A    between atoms: _218  and  _219
REMARK   94  A    between atoms: _222  and  _224
REMARK   95  A    between atoms: _224  and  _225
REMARK   96  A    between atoms: _224  and  _227
REMARK   97  A    between atoms: _227  and  _228
REMARK   98  A    between atoms: _233  and  _235
REMARK   99  A    between atoms: _235  and  _236
REMARK  100  A    between atoms: _235  and  _238
REMARK  101  A    between atoms: _238  and  _239
REMARK  102  A    between atoms: _243  and  _244
REMARK  103  A    between atoms: _249  and  _251
REMARK  104  A    between atoms: _251  and  _252
REMARK  105  A    between atoms: _251  and  _254
REMARK  106  A    between atoms: _254  and  _255
REMARK  107  A    between atoms: _257  and  _259
REMARK  108  A    between atoms: _259  and  _260
REMARK  109  A    between atoms: _263  and  _265
REMARK  110  A    between atoms: _265  and  _266
REMARK  111  A    between atoms: _265  and  _268
REMARK  112  A    between atoms: _268  and  _269
REMARK                            x       y       z     vdW  Elec       q    Type
REMARK                         _______ _______ _______ _____ _____    ______ ____
ROOT
ATOM      1  O   HOH     1      52.710  59.804  20.583  0.00  0.00    +0.000 OA
ENDROOT
TORSDOF 0
REMARK  Name = ../refined-set-2016/2qrl/2qrl_pocket.pdb
REMARK  112 active torsions:
REMARK  status: ('A' for Active; 'I' for Inactive)
REMARK    1  A    between atoms: _1  and  _3
REMARK    2  A    between atoms: _3  and  _4
REMARK    3  A    between atoms: _3  and  _6
REMARK    4  A    between atoms: _6  and  _7
REMARK    5  A    between atoms: _7  and  _8
REMARK    6  A    between atoms: _8  and  _9
REMARK    7  A    between atoms: _9  and  _10
REMARK    8  A    between atoms: _14  and  _16
REMARK    9  A    between atoms: _16  and  _17
REMARK   10  A    between atoms: _16  and  _19
REMARK   11  A    between atoms: _19  and  _20
REMARK   12  A    between atoms: _20  and  _21
REMARK   13  A    between atoms: _24  and  _26
REMARK   14  A    between atoms: _26  and  _27
REMARK   15  A    between atoms: _26  and  _29
REMARK   16  A    between atoms: _29  and  _30
REMARK   17  A    between atoms: _30  and  _31
REMARK   18  A    between atoms: _31  and  _32
REMARK   19  A    between atoms: _41  and  _43
REMARK   20  A    between atoms: _43  and  _44
REMARK   21  A    between atoms: _43  and  _46
REMARK   22  A    between atoms: _46  and  _47
REMARK   23  A    between atoms: _50  and  _52
REMARK   24  A    between atoms: _52  and  _53
REMARK   25  A    between atoms: _52  and  _55
REMARK   26  A    between atoms: _55  and  _56
REMARK   27  A    between atoms: _56  and  _57
REMARK   28  A    between atoms: _57  and  _58
REMARK   29  A    between atoms: _58  and  _59
REMARK   30  A    between atoms: _63  and  _65
REMARK   31  A    between atoms: _65  and  _66
REMARK   32  A    between atoms: _65  and  _68
REMARK   33  A    between atoms: _68  and  _69
REMARK   34  A    between atoms: _69  and  _70
REMARK   35  A    between atoms: _73  and  _75
REMARK   36  A    between atoms: _75  and  _76
REMARK   37  A    between atoms: _75  and  _78
REMARK   38  A    between atoms: _78  and  _79
REMARK   39  A    between atoms: _85  and  _87
REMARK   40  A    between atoms: _87  and  _88
REMARK   41  A    between atoms: _91  and  _93
REMARK   42  A    between atoms: _93  and  _94
REMARK   43  A    between atoms: _93  and  _96
REMARK   44  A    between atoms: _96  and  _97
REMARK   45  A    between atoms: _102  and  _104
REMARK   46  A    between atoms: _104  and  _105
REMARK   47  A    between atoms: _104  and  _107
REMARK   48  A    between atoms: _107  and  _108
REMARK   49  A    between atoms: _108  and  _109
REMARK   50  A    between atoms: _109  and  _110
REMARK   51  A    between atoms: _110  and  _111
REMARK   52  A    between atoms: _115  and  _117
REMARK   53  A    between atoms: _117  and  _118
REMARK   54  A    between atoms: _117  and  _120
REMARK   55  A    between atoms: _120  and  _121
REMARK   56  A    between atoms: _121  and  _122
REMARK   57  A    between atoms: _127  and  _129
REMARK   58  A    between atoms: _129  and  _130
REMARK   59  A    between atoms: _129  and  _132
REMARK   60  A    between atoms: _132  and  _133
REMARK   61  A    between atoms: _136  and  _138
REMARK   62  A    between atoms: _138  and  _139
REMARK   63  A    between atoms: _138  and  _141
REMARK   64  A    between atoms: _141  and  _142
REMARK   65  A    between atoms: _145  and  _147
REMARK   66  A    between atoms: _147  and  _148
REMARK   67  A    between atoms: _147  and  _150
REMARK   68  A    between atoms: _150  and  _151
REMARK   69  A    between atoms: _151  and  _152
REMARK   70  A    between atoms: _155  and  _157
REMARK   71  A    between atoms: _157  and  _158
REMARK   72  A    between atoms: _157  and  _160
REMARK   73  A    between atoms: _160  and  _161
REMARK   74  A    between atoms: _167  and  _169
REMARK   75  A    between atoms: _169  and  _170
REMARK   76  A    between atoms: _169  and  _172
REMARK   77  A    between atoms: _172  and  _173
REMARK   78  A    between atoms: _173  and  _174
REMARK   79  A    between atoms: _174  and  _175
REMARK   80  A    between atoms: _184  and  _186
REMARK   81  A    between atoms: _186  and  _187
REMARK   82  A    between atoms: _190  and  _192
REMARK   83  A    between atoms: _192  and  _193
REMARK   84  A    between atoms: _196  and  _198
REMARK   85  A    between atoms: _198  and  _199
REMARK   86  A    between atoms: _198  and  _201
REMARK   87  A    between atoms: _201  and  _202
REMARK   88  A    between atoms: _208  and  _210
REMARK   89  A    between atoms: _210  and  _211
REMARK   90  A    between atoms: _213  and  _215
REMARK   91  A    between atoms: _215  and  _216
REMARK   92  A    between atoms: _215  and  _218
REMARK   93  A    between atoms: _218  and  _219
REMARK   94  A    between atoms: _222  and  _224
REMARK   95  A    between atoms: _224  and  _225
REMARK   96  A    between atoms: _224  and  _227
REMARK   97  A    between atoms: _227  and  _228
REMARK   98  A    between atoms: _233  and  _235
REMARK   99  A    between atoms: _235  and  _236
REMARK  100  A    between atoms: _235  and  _238
REMARK  101  A    between atoms: _238  and  _239
REMARK  102  A    between atoms: _243  and  _244
REMARK  103  A    between atoms: _249  and  _251
REMARK  104  A    between atoms: _251  and  _252
REMARK  105  A    between atoms: _251  and  _254
REMARK  106  A    between atoms: _254  and  _255
REMARK  107  A    between atoms: _257  and  _259
REMARK  108  A    between atoms: _259  and  _260
REMARK  109  A    between atoms: _263  and  _265
REMARK  110  A    between atoms: _265  and  _266
REMARK  111  A    between atoms: _265  and  _268
REMARK  112  A    between atoms: _268  and  _269
REMARK                            x       y       z     vdW  Elec       q    Type
REMARK                         _______ _______ _______ _____ _____    ______ ____
ROOT
ATOM      1  O   HOH     1      39.390  55.949   9.196  0.00  0.00    +0.000 OA
ENDROOT
TORSDOF 0
REMARK  Name = ../refined-set-2016/2qrl/2qrl_pocket.pdb
REMARK  112 active torsions:
REMARK  status: ('A' for Active; 'I' for Inactive)
REMARK    1  A    between atoms: _1  and  _3
REMARK    2  A    between atoms: _3  and  _4
REMARK    3  A    between atoms: _3  and  _6
REMARK    4  A    between atoms: _6  and  _7
REMARK    5  A    between atoms: _7  and  _8
REMARK    6  A    between atoms: _8  and  _9
REMARK    7  A    between atoms: _9  and  _10
REMARK    8  A    between atoms: _14  and  _16
REMARK    9  A    between atoms: _16  and  _17
REMARK   10  A    between atoms: _16  and  _19
REMARK   11  A    between atoms: _19  and  _20
REMARK   12  A    between atoms: _20  and  _21
REMARK   13  A    between atoms: _24  and  _26
REMARK   14  A    between atoms: _26  and  _27
REMARK   15  A    between atoms: _26  and  _29
REMARK   16  A    between atoms: _29  and  _30
REMARK   17  A    between atoms: _30  and  _31
REMARK   18  A    between atoms: _31  and  _32
REMARK   19  A    between atoms: _41  and  _43
REMARK   20  A    between atoms: _43  and  _44
REMARK   21  A    between atoms: _43  and  _46
REMARK   22  A    between atoms: _46  and  _47
REMARK   23  A    between atoms: _50  and  _52
REMARK   24  A    between atoms: _52  and  _53
REMARK   25  A    between atoms: _52  and  _55
REMARK   26  A    between atoms: _55  and  _56
REMARK   27  A    between atoms: _56  and  _57
REMARK   28  A    between atoms: _57  and  _58
REMARK   29  A    between atoms: _58  and  _59
REMARK   30  A    between atoms: _63  and  _65
REMARK   31  A    between atoms: _65  and  _66
REMARK   32  A    between atoms: _65  and  _68
REMARK   33  A    between atoms: _68  and  _69
REMARK   34  A    between atoms: _69  and  _70
REMARK   35  A    between atoms: _73  and  _75
REMARK   36  A    between atoms: _75  and  _76
REMARK   37  A    between atoms: _75  and  _78
REMARK   38  A    between atoms: _78  and  _79
REMARK   39  A    between atoms: _85  and  _87
REMARK   40  A    between atoms: _87  and  _88
REMARK   41  A    between atoms: _91  and  _93
REMARK   42  A    between atoms: _93  and  _94
REMARK   43  A    between atoms: _93  and  _96
REMARK   44  A    between atoms: _96  and  _97
REMARK   45  A    between atoms: _102  and  _104
REMARK   46  A    between atoms: _104  and  _105
REMARK   47  A    between atoms: _104  and  _107
REMARK   48  A    between atoms: _107  and  _108
REMARK   49  A    between atoms: _108  and  _109
REMARK   50  A    between atoms: _109  and  _110
REMARK   51  A    between atoms: _110  and  _111
REMARK   52  A    between atoms: _115  and  _117
REMARK   53  A    between atoms: _117  and  _118
REMARK   54  A    between atoms: _117  and  _120
REMARK   55  A    between atoms: _120  and  _121
REMARK   56  A    between atoms: _121  and  _122
REMARK   57  A    between atoms: _127  and  _129
REMARK   58  A    between atoms: _129  and  _130
REMARK   59  A    between atoms: _129  and  _132
REMARK   60  A    between atoms: _132  and  _133
REMARK   61  A    between atoms: _136  and  _138
REMARK   62  A    between atoms: _138  and  _139
REMARK   63  A    between atoms: _138  and  _141
REMARK   64  A    between atoms: _141  and  _142
REMARK   65  A    between atoms: _145  and  _147
REMARK   66  A    between atoms: _147  and  _148
REMARK   67  A    between atoms: _147  and  _150
REMARK   68  A    between atoms: _150  and  _151
REMARK   69  A    between atoms: _151  and  _152
REMARK   70  A    between atoms: _155  and  _157
REMARK   71  A    between atoms: _157  and  _158
REMARK   72  A    between atoms: _157  and  _160
REMARK   73  A    between atoms: _160  and  _161
REMARK   74  A    between atoms: _167  and  _169
REMARK   75  A    between atoms: _169  and  _170
REMARK   76  A    between atoms: _169  and  _172
REMARK   77  A    between atoms: _172  and  _173
REMARK   78  A    between atoms: _173  and  _174
REMARK   79  A    between atoms: _174  and  _175
REMARK   80  A    between atoms: _184  and  _186
REMARK   81  A    between atoms: _186  and  _187
REMARK   82  A    between atoms: _190  and  _192
REMARK   83  A    between atoms: _192  and  _193
REMARK   84  A    between atoms: _196  and  _198
REMARK   85  A    between atoms: _198  and  _199
REMARK   86  A    between atoms: _198  and  _201
REMARK   87  A    between atoms: _201  and  _202
REMARK   88  A    between atoms: _208  and  _210
REMARK   89  A    between atoms: _210  and  _211
REMARK   90  A    between atoms: _213  and  _215
REMARK   91  A    between atoms: _215  and  _216
REMARK   92  A    between atoms: _215  and  _218
REMARK   93  A    between atoms: _218  and  _219
REMARK   94  A    between atoms: _222  and  _224
REMARK   95  A    between atoms: _224  and  _225
REMARK   96  A    between atoms: _224  and  _227
REMARK   97  A    between atoms: _227  and  _228
REMARK   98  A    between atoms: _233  and  _235
REMARK   99  A    between atoms: _235  and  _236
REMARK  100  A    between atoms: _235  and  _238
REMARK  101  A    between atoms: _238  and  _239
REMARK  102  A    between atoms: _243  and  _244
REMARK  103  A    between atoms: _249  and  _251
REMARK  104  A    between atoms: _251  and  _252
REMARK  105  A    between atoms: _251  and  _254
REMARK  106  A    between atoms: _254  and  _255
REMARK  107  A    between atoms: _257  and  _259
REMARK  108  A    between atoms: _259  and  _260
REMARK  109  A    between atoms: _263  and  _265
REMARK  110  A    between atoms: _265  and  _266
REMARK  111  A    between atoms: _265  and  _268
REMARK  112  A    between atoms: _268  and  _269
REMARK                            x       y       z     vdW  Elec       q    Type
REMARK                         _______ _______ _______ _____ _____    ______ ____
ROOT
ATOM      1  O   HOH     1      40.554  53.830  21.231  0.00  0.00    +0.000 OA
ENDROOT
TORSDOF 0
REMARK  Name = ../refined-set-2016/2qrl/2qrl_pocket.pdb
REMARK  112 active torsions:
REMARK  status: ('A' for Active; 'I' for Inactive)
REMARK    1  A    between atoms: _1  and  _3
REMARK    2  A    between atoms: _3  and  _4
REMARK    3  A    between atoms: _3  and  _6
REMARK    4  A    between atoms: _6  and  _7
REMARK    5  A    between atoms: _7  and  _8
REMARK    6  A    between atoms: _8  and  _9
REMARK    7  A    between atoms: _9  and  _10
REMARK    8  A    between atoms: _14  and  _16
REMARK    9  A    between atoms: _16  and  _17
REMARK   10  A    between atoms: _16  and  _19
REMARK   11  A    between atoms: _19  and  _20
REMARK   12  A    between atoms: _20  and  _21
REMARK   13  A    between atoms: _24  and  _26
REMARK   14  A    between atoms: _26  and  _27
REMARK   15  A    between atoms: _26  and  _29
REMARK   16  A    between atoms: _29  and  _30
REMARK   17  A    between atoms: _30  and  _31
REMARK   18  A    between atoms: _31  and  _32
REMARK   19  A    between atoms: _41  and  _43
REMARK   20  A    between atoms: _43  and  _44
REMARK   21  A    between atoms: _43  and  _46
REMARK   22  A    between atoms: _46  and  _47
REMARK   23  A    between atoms: _50  and  _52
REMARK   24  A    between atoms: _52  and  _53
REMARK   25  A    between atoms: _52  and  _55
REMARK   26  A    between atoms: _55  and  _56
REMARK   27  A    between atoms: _56  and  _57
REMARK   28  A    between atoms: _57  and  _58
REMARK   29  A    between atoms: _58  and  _59
REMARK   30  A    between atoms: _63  and  _65
REMARK   31  A    between atoms: _65  and  _66
REMARK   32  A    between atoms: _65  and  _68
REMARK   33  A    between atoms: _68  and  _69
REMARK   34  A    between atoms: _69  and  _70
REMARK   35  A    between atoms: _73  and  _75
REMARK   36  A    between atoms: _75  and  _76
REMARK   37  A    between atoms: _75  and  _78
REMARK   38  A    between atoms: _78  and  _79
REMARK   39  A    between atoms: _85  and  _87
REMARK   40  A    between atoms: _87  and  _88
REMARK   41  A    between atoms: _91  and  _93
REMARK   42  A    between atoms: _93  and  _94
REMARK   43  A    between atoms: _93  and  _96
REMARK   44  A    between atoms: _96  and  _97
REMARK   45  A    between atoms: _102  and  _104
REMARK   46  A    between atoms: _104  and  _105
REMARK   47  A    between atoms: _104  and  _107
REMARK   48  A    between atoms: _107  and  _108
REMARK   49  A    between atoms: _108  and  _109
REMARK   50  A    between atoms: _109  and  _110
REMARK   51  A    between atoms: _110  and  _111
REMARK   52  A    between atoms: _115  and  _117
REMARK   53  A    between atoms: _117  and  _118
REMARK   54  A    between atoms: _117  and  _120
REMARK   55  A    between atoms: _120  and  _121
REMARK   56  A    between atoms: _121  and  _122
REMARK   57  A    between atoms: _127  and  _129
REMARK   58  A    between atoms: _129  and  _130
REMARK   59  A    between atoms: _129  and  _132
REMARK   60  A    between atoms: _132  and  _133
REMARK   61  A    between atoms: _136  and  _138
REMARK   62  A    between atoms: _138  and  _139
REMARK   63  A    between atoms: _138  and  _141
REMARK   64  A    between atoms: _141  and  _142
REMARK   65  A    between atoms: _145  and  _147
REMARK   66  A    between atoms: _147  and  _148
REMARK   67  A    between atoms: _147  and  _150
REMARK   68  A    between atoms: _150  and  _151
REMARK   69  A    between atoms: _151  and  _152
REMARK   70  A    between atoms: _155  and  _157
REMARK   71  A    between atoms: _157  and  _158
REMARK   72  A    between atoms: _157  and  _160
REMARK   73  A    between atoms: _160  and  _161
REMARK   74  A    between atoms: _167  and  _169
REMARK   75  A    between atoms: _169  and  _170
REMARK   76  A    between atoms: _169  and  _172
REMARK   77  A    between atoms: _172  and  _173
REMARK   78  A    between atoms: _173  and  _174
REMARK   79  A    between atoms: _174  and  _175
REMARK   80  A    between atoms: _184  and  _186
REMARK   81  A    between atoms: _186  and  _187
REMARK   82  A    between atoms: _190  and  _192
REMARK   83  A    between atoms: _192  and  _193
REMARK   84  A    between atoms: _196  and  _198
REMARK   85  A    between atoms: _198  and  _199
REMARK   86  A    between atoms: _198  and  _201
REMARK   87  A    between atoms: _201  and  _202
REMARK   88  A    between atoms: _208  and  _210
REMARK   89  A    between atoms: _210  and  _211
REMARK   90  A    between atoms: _213  and  _215
REMARK   91  A    between atoms: _215  and  _216
REMARK   92  A    between atoms: _215  and  _218
REMARK   93  A    between atoms: _218  and  _219
REMARK   94  A    between atoms: _222  and  _224
REMARK   95  A    between atoms: _224  and  _225
REMARK   96  A    between atoms: _224  and  _227
REMARK   97  A    between atoms: _227  and  _228
REMARK   98  A    between atoms: _233  and  _235
REMARK   99  A    between atoms: _235  and  _236
REMARK  100  A    between atoms: _235  and  _238
REMARK  101  A    between atoms: _238  and  _239
REMARK  102  A    between atoms: _243  and  _244
REMARK  103  A    between atoms: _249  and  _251
REMARK  104  A    between atoms: _251  and  _252
REMARK  105  A    between atoms: _251  and  _254
REMARK  106  A    between atoms: _254  and  _255
REMARK  107  A    between atoms: _257  and  _259
REMARK  108  A    between atoms: _259  and  _260
REMARK  109  A    between atoms: _263  and  _265
REMARK  110  A    between atoms: _265  and  _266
REMARK  111  A    between atoms: _265  and  _268
REMARK  112  A    between atoms: _268  and  _269
REMARK                            x       y       z     vdW  Elec       q    Type
REMARK                         _______ _______ _______ _____ _____    ______ ____
ROOT
ATOM      1  O   HOH     1      47.951  64.526  20.566  0.00  0.00    +0.000 OA
ENDROOT
TORSDOF 0
REMARK  Name = ../refined-set-2016/2qrl/2qrl_pocket.pdb
REMARK  112 active torsions:
REMARK  status: ('A' for Active; 'I' for Inactive)
REMARK    1  A    between atoms: _1  and  _3
REMARK    2  A    between atoms: _3  and  _4
REMARK    3  A    between atoms: _3  and  _6
REMARK    4  A    between atoms: _6  and  _7
REMARK    5  A    between atoms: _7  and  _8
REMARK    6  A    between atoms: _8  and  _9
REMARK    7  A    between atoms: _9  and  _10
REMARK    8  A    between atoms: _14  and  _16
REMARK    9  A    between atoms: _16  and  _17
REMARK   10  A    between atoms: _16  and  _19
REMARK   11  A    between atoms: _19  and  _20
REMARK   12  A    between atoms: _20  and  _21
REMARK   13  A    between atoms: _24  and  _26
REMARK   14  A    between atoms: _26  and  _27
REMARK   15  A    between atoms: _26  and  _29
REMARK   16  A    between atoms: _29  and  _30
REMARK   17  A    between atoms: _30  and  _31
REMARK   18  A    between atoms: _31  and  _32
REMARK   19  A    between atoms: _41  and  _43
REMARK   20  A    between atoms: _43  and  _44
REMARK   21  A    between atoms: _43  and  _46
REMARK   22  A    between atoms: _46  and  _47
REMARK   23  A    between atoms: _50  and  _52
REMARK   24  A    between atoms: _52  and  _53
REMARK   25  A    between atoms: _52  and  _55
REMARK   26  A    between atoms: _55  and  _56
REMARK   27  A    between atoms: _56  and  _57
REMARK   28  A    between atoms: _57  and  _58
REMARK   29  A    between atoms: _58  and  _59
REMARK   30  A    between atoms: _63  and  _65
REMARK   31  A    between atoms: _65  and  _66
REMARK   32  A    between atoms: _65  and  _68
REMARK   33  A    between atoms: _68  and  _69
REMARK   34  A    between atoms: _69  and  _70
REMARK   35  A    between atoms: _73  and  _75
REMARK   36  A    between atoms: _75  and  _76
REMARK   37  A    between atoms: _75  and  _78
REMARK   38  A    between atoms: _78  and  _79
REMARK   39  A    between atoms: _85  and  _87
REMARK   40  A    between atoms: _87  and  _88
REMARK   41  A    between atoms: _91  and  _93
REMARK   42  A    between atoms: _93  and  _94
REMARK   43  A    between atoms: _93  and  _96
REMARK   44  A    between atoms: _96  and  _97
REMARK   45  A    between atoms: _102  and  _104
REMARK   46  A    between atoms: _104  and  _105
REMARK   47  A    between atoms: _104  and  _107
REMARK   48  A    between atoms: _107  and  _108
REMARK   49  A    between atoms: _108  and  _109
REMARK   50  A    between atoms: _109  and  _110
REMARK   51  A    between atoms: _110  and  _111
REMARK   52  A    between atoms: _115  and  _117
REMARK   53  A    between atoms: _117  and  _118
REMARK   54  A    between atoms: _117  and  _120
REMARK   55  A    between atoms: _120  and  _121
REMARK   56  A    between atoms: _121  and  _122
REMARK   57  A    between atoms: _127  and  _129
REMARK   58  A    between atoms: _129  and  _130
REMARK   59  A    between atoms: _129  and  _132
REMARK   60  A    between atoms: _132  and  _133
REMARK   61  A    between atoms: _136  and  _138
REMARK   62  A    between atoms: _138  and  _139
REMARK   63  A    between atoms: _138  and  _141
REMARK   64  A    between atoms: _141  and  _142
REMARK   65  A    between atoms: _145  and  _147
REMARK   66  A    between atoms: _147  and  _148
REMARK   67  A    between atoms: _147  and  _150
REMARK   68  A    between atoms: _150  and  _151
REMARK   69  A    between atoms: _151  and  _152
REMARK   70  A    between atoms: _155  and  _157
REMARK   71  A    between atoms: _157  and  _158
REMARK   72  A    between atoms: _157  and  _160
REMARK   73  A    between atoms: _160  and  _161
REMARK   74  A    between atoms: _167  and  _169
REMARK   75  A    between atoms: _169  and  _170
REMARK   76  A    between atoms: _169  and  _172
REMARK   77  A    between atoms: _172  and  _173
REMARK   78  A    between atoms: _173  and  _174
REMARK   79  A    between atoms: _174  and  _175
REMARK   80  A    between atoms: _184  and  _186
REMARK   81  A    between atoms: _186  and  _187
REMARK   82  A    between atoms: _190  and  _192
REMARK   83  A    between atoms: _192  and  _193
REMARK   84  A    between atoms: _196  and  _198
REMARK   85  A    between atoms: _198  and  _199
REMARK   86  A    between atoms: _198  and  _201
REMARK   87  A    between atoms: _201  and  _202
REMARK   88  A    between atoms: _208  and  _210
REMARK   89  A    between atoms: _210  and  _211
REMARK   90  A    between atoms: _213  and  _215
REMARK   91  A    between atoms: _215  and  _216
REMARK   92  A    between atoms: _215  and  _218
REMARK   93  A    between atoms: _218  and  _219
REMARK   94  A    between atoms: _222  and  _224
REMARK   95  A    between atoms: _224  and  _225
REMARK   96  A    between atoms: _224  and  _227
REMARK   97  A    between atoms: _227  and  _228
REMARK   98  A    between atoms: _233  and  _235
REMARK   99  A    between atoms: _235  and  _236
REMARK  100  A    between atoms: _235  and  _238
REMARK  101  A    between atoms: _238  and  _239
REMARK  102  A    between atoms: _243  and  _244
REMARK  103  A    between atoms: _249  and  _251
REMARK  104  A    between atoms: _251  and  _252
REMARK  105  A    between atoms: _251  and  _254
REMARK  106  A    between atoms: _254  and  _255
REMARK  107  A    between atoms: _257  and  _259
REMARK  108  A    between atoms: _259  and  _260
REMARK  109  A    between atoms: _263  and  _265
REMARK  110  A    between atoms: _265  and  _266
REMARK  111  A    between atoms: _265  and  _268
REMARK  112  A    between atoms: _268  and  _269
REMARK                            x       y       z     vdW  Elec       q    Type
REMARK                         _______ _______ _______ _____ _____    ______ ____
ROOT
ATOM      1  O   HOH     1      44.391  58.240  20.564  0.00  0.00    +0.000 OA
ENDROOT
TORSDOF 0
REMARK  Name = ../refined-set-2016/2qrl/2qrl_pocket.pdb
REMARK  112 active torsions:
REMARK  status: ('A' for Active; 'I' for Inactive)
REMARK    1  A    between atoms: _1  and  _3
REMARK    2  A    between atoms: _3  and  _4
REMARK    3  A    between atoms: _3  and  _6
REMARK    4  A    between atoms: _6  and  _7
REMARK    5  A    between atoms: _7  and  _8
REMARK    6  A    between atoms: _8  and  _9
REMARK    7  A    between atoms: _9  and  _10
REMARK    8  A    between atoms: _14  and  _16
REMARK    9  A    between atoms: _16  and  _17
REMARK   10  A    between atoms: _16  and  _19
REMARK   11  A    between atoms: _19  and  _20
REMARK   12  A    between atoms: _20  and  _21
REMARK   13  A    between atoms: _24  and  _26
REMARK   14  A    between atoms: _26  and  _27
REMARK   15  A    between atoms: _26  and  _29
REMARK   16  A    between atoms: _29  and  _30
REMARK   17  A    between atoms: _30  and  _31
REMARK   18  A    between atoms: _31  and  _32
REMARK   19  A    between atoms: _41  and  _43
REMARK   20  A    between atoms: _43  and  _44
REMARK   21  A    between atoms: _43  and  _46
REMARK   22  A    between atoms: _46  and  _47
REMARK   23  A    between atoms: _50  and  _52
REMARK   24  A    between atoms: _52  and  _53
REMARK   25  A    between atoms: _52  and  _55
REMARK   26  A    between atoms: _55  and  _56
REMARK   27  A    between atoms: _56  and  _57
REMARK   28  A    between atoms: _57  and  _58
REMARK   29  A    between atoms: _58  and  _59
REMARK   30  A    between atoms: _63  and  _65
REMARK   31  A    between atoms: _65  and  _66
REMARK   32  A    between atoms: _65  and  _68
REMARK   33  A    between atoms: _68  and  _69
REMARK   34  A    between atoms: _69  and  _70
REMARK   35  A    between atoms: _73  and  _75
REMARK   36  A    between atoms: _75  and  _76
REMARK   37  A    between atoms: _75  and  _78
REMARK   38  A    between atoms: _78  and  _79
REMARK   39  A    between atoms: _85  and  _87
REMARK   40  A    between atoms: _87  and  _88
REMARK   41  A    between atoms: _91  and  _93
REMARK   42  A    between atoms: _93  and  _94
REMARK   43  A    between atoms: _93  and  _96
REMARK   44  A    between atoms: _96  and  _97
REMARK   45  A    between atoms: _102  and  _104
REMARK   46  A    between atoms: _104  and  _105
REMARK   47  A    between atoms: _104  and  _107
REMARK   48  A    between atoms: _107  and  _108
REMARK   49  A    between atoms: _108  and  _109
REMARK   50  A    between atoms: _109  and  _110
REMARK   51  A    between atoms: _110  and  _111
REMARK   52  A    between atoms: _115  and  _117
REMARK   53  A    between atoms: _117  and  _118
REMARK   54  A    between atoms: _117  and  _120
REMARK   55  A    between atoms: _120  and  _121
REMARK   56  A    between atoms: _121  and  _122
REMARK   57  A    between atoms: _127  and  _129
REMARK   58  A    between atoms: _129  and  _130
REMARK   59  A    between atoms: _129  and  _132
REMARK   60  A    between atoms: _132  and  _133
REMARK   61  A    between atoms: _136  and  _138
REMARK   62  A    between atoms: _138  and  _139
REMARK   63  A    between atoms: _138  and  _141
REMARK   64  A    between atoms: _141  and  _142
REMARK   65  A    between atoms: _145  and  _147
REMARK   66  A    between atoms: _147  and  _148
REMARK   67  A    between atoms: _147  and  _150
REMARK   68  A    between atoms: _150  and  _151
REMARK   69  A    between atoms: _151  and  _152
REMARK   70  A    between atoms: _155  and  _157
REMARK   71  A    between atoms: _157  and  _158
REMARK   72  A    between atoms: _157  and  _160
REMARK   73  A    between atoms: _160  and  _161
REMARK   74  A    between atoms: _167  and  _169
REMARK   75  A    between atoms: _169  and  _170
REMARK   76  A    between atoms: _169  and  _172
REMARK   77  A    between atoms: _172  and  _173
REMARK   78  A    between atoms: _173  and  _174
REMARK   79  A    between atoms: _174  and  _175
REMARK   80  A    between atoms: _184  and  _186
REMARK   81  A    between atoms: _186  and  _187
REMARK   82  A    between atoms: _190  and  _192
REMARK   83  A    between atoms: _192  and  _193
REMARK   84  A    between atoms: _196  and  _198
REMARK   85  A    between atoms: _198  and  _199
REMARK   86  A    between atoms: _198  and  _201
REMARK   87  A    between atoms: _201  and  _202
REMARK   88  A    between atoms: _208  and  _210
REMARK   89  A    between atoms: _210  and  _211
REMARK   90  A    between atoms: _213  and  _215
REMARK   91  A    between atoms: _215  and  _216
REMARK   92  A    between atoms: _215  and  _218
REMARK   93  A    between atoms: _218  and  _219
REMARK   94  A    between atoms: _222  and  _224
REMARK   95  A    between atoms: _224  and  _225
REMARK   96  A    between atoms: _224  and  _227
REMARK   97  A    between atoms: _227  and  _228
REMARK   98  A    between atoms: _233  and  _235
REMARK   99  A    between atoms: _235  and  _236
REMARK  100  A    between atoms: _235  and  _238
REMARK  101  A    between atoms: _238  and  _239
REMARK  102  A    between atoms: _243  and  _244
REMARK  103  A    between atoms: _249  and  _251
REMARK  104  A    between atoms: _251  and  _252
REMARK  105  A    between atoms: _251  and  _254
REMARK  106  A    between atoms: _254  and  _255
REMARK  107  A    between atoms: _257  and  _259
REMARK  108  A    between atoms: _259  and  _260
REMARK  109  A    between atoms: _263  and  _265
REMARK  110  A    between atoms: _265  and  _266
REMARK  111  A    between atoms: _265  and  _268
REMARK  112  A    between atoms: _268  and  _269
REMARK                            x       y       z     vdW  Elec       q    Type
REMARK                         _______ _______ _______ _____ _____    ______ ____
ROOT
ATOM      1  O   HOH     1      39.377  56.576  21.559  0.00  0.00    +0.000 OA
ENDROOT
TORSDOF 0
REMARK  Name = ../refined-set-2016/2qrl/2qrl_pocket.pdb
REMARK  112 active torsions:
REMARK  status: ('A' for Active; 'I' for Inactive)
REMARK    1  A    between atoms: _1  and  _3
REMARK    2  A    between atoms: _3  and  _4
REMARK    3  A    between atoms: _3  and  _6
REMARK    4  A    between atoms: _6  and  _7
REMARK    5  A    between atoms: _7  and  _8
REMARK    6  A    between atoms: _8  and  _9
REMARK    7  A    between atoms: _9  and  _10
REMARK    8  A    between atoms: _14  and  _16
REMARK    9  A    between atoms: _16  and  _17
REMARK   10  A    between atoms: _16  and  _19
REMARK   11  A    between atoms: _19  and  _20
REMARK   12  A    between atoms: _20  and  _21
REMARK   13  A    between atoms: _24  and  _26
REMARK   14  A    between atoms: _26  and  _27
REMARK   15  A    between atoms: _26  and  _29
REMARK   16  A    between atoms: _29  and  _30
REMARK   17  A    between atoms: _30  and  _31
REMARK   18  A    between atoms: _31  and  _32
REMARK   19  A    between atoms: _41  and  _43
REMARK   20  A    between atoms: _43  and  _44
REMARK   21  A    between atoms: _43  and  _46
REMARK   22  A    between atoms: _46  and  _47
REMARK   23  A    between atoms: _50  and  _52
REMARK   24  A    between atoms: _52  and  _53
REMARK   25  A    between atoms: _52  and  _55
REMARK   26  A    between atoms: _55  and  _56
REMARK   27  A    between atoms: _56  and  _57
REMARK   28  A    between atoms: _57  and  _58
REMARK   29  A    between atoms: _58  and  _59
REMARK   30  A    between atoms: _63  and  _65
REMARK   31  A    between atoms: _65  and  _66
REMARK   32  A    between atoms: _65  and  _68
REMARK   33  A    between atoms: _68  and  _69
REMARK   34  A    between atoms: _69  and  _70
REMARK   35  A    between atoms: _73  and  _75
REMARK   36  A    between atoms: _75  and  _76
REMARK   37  A    between atoms: _75  and  _78
REMARK   38  A    between atoms: _78  and  _79
REMARK   39  A    between atoms: _85  and  _87
REMARK   40  A    between atoms: _87  and  _88
REMARK   41  A    between atoms: _91  and  _93
REMARK   42  A    between atoms: _93  and  _94
REMARK   43  A    between atoms: _93  and  _96
REMARK   44  A    between atoms: _96  and  _97
REMARK   45  A    between atoms: _102  and  _104
REMARK   46  A    between atoms: _104  and  _105
REMARK   47  A    between atoms: _104  and  _107
REMARK   48  A    between atoms: _107  and  _108
REMARK   49  A    between atoms: _108  and  _109
REMARK   50  A    between atoms: _109  and  _110
REMARK   51  A    between atoms: _110  and  _111
REMARK   52  A    between atoms: _115  and  _117
REMARK   53  A    between atoms: _117  and  _118
REMARK   54  A    between atoms: _117  and  _120
REMARK   55  A    between atoms: _120  and  _121
REMARK   56  A    between atoms: _121  and  _122
REMARK   57  A    between atoms: _127  and  _129
REMARK   58  A    between atoms: _129  and  _130
REMARK   59  A    between atoms: _129  and  _132
REMARK   60  A    between atoms: _132  and  _133
REMARK   61  A    between atoms: _136  and  _138
REMARK   62  A    between atoms: _138  and  _139
REMARK   63  A    between atoms: _138  and  _141
REMARK   64  A    between atoms: _141  and  _142
REMARK   65  A    between atoms: _145  and  _147
REMARK   66  A    between atoms: _147  and  _148
REMARK   67  A    between atoms: _147  and  _150
REMARK   68  A    between atoms: _150  and  _151
REMARK   69  A    between atoms: _151  and  _152
REMARK   70  A    between atoms: _155  and  _157
REMARK   71  A    between atoms: _157  and  _158
REMARK   72  A    between atoms: _157  and  _160
REMARK   73  A    between atoms: _160  and  _161
REMARK   74  A    between atoms: _167  and  _169
REMARK   75  A    between atoms: _169  and  _170
REMARK   76  A    between atoms: _169  and  _172
REMARK   77  A    between atoms: _172  and  _173
REMARK   78  A    between atoms: _173  and  _174
REMARK   79  A    between atoms: _174  and  _175
REMARK   80  A    between atoms: _184  and  _186
REMARK   81  A    between atoms: _186  and  _187
REMARK   82  A    between atoms: _190  and  _192
REMARK   83  A    between atoms: _192  and  _193
REMARK   84  A    between atoms: _196  and  _198
REMARK   85  A    between atoms: _198  and  _199
REMARK   86  A    between atoms: _198  and  _201
REMARK   87  A    between atoms: _201  and  _202
REMARK   88  A    between atoms: _208  and  _210
REMARK   89  A    between atoms: _210  and  _211
REMARK   90  A    between atoms: _213  and  _215
REMARK   91  A    between atoms: _215  and  _216
REMARK   92  A    between atoms: _215  and  _218
REMARK   93  A    between atoms: _218  and  _219
REMARK   94  A    between atoms: _222  and  _224
REMARK   95  A    between atoms: _224  and  _225
REMARK   96  A    between atoms: _224  and  _227
REMARK   97  A    between atoms: _227  and  _228
REMARK   98  A    between atoms: _233  and  _235
REMARK   99  A    between atoms: _235  and  _236
REMARK  100  A    between atoms: _235  and  _238
REMARK  101  A    between atoms: _238  and  _239
REMARK  102  A    between atoms: _243  and  _244
REMARK  103  A    between atoms: _249  and  _251
REMARK  104  A    between atoms: _251  and  _252
REMARK  105  A    between atoms: _251  and  _254
REMARK  106  A    between atoms: _254  and  _255
REMARK  107  A    between atoms: _257  and  _259
REMARK  108  A    between atoms: _259  and  _260
REMARK  109  A    between atoms: _263  and  _265
REMARK  110  A    between atoms: _265  and  _266
REMARK  111  A    between atoms: _265  and  _268
REMARK  112  A    between atoms: _268  and  _269
REMARK                            x       y       z     vdW  Elec       q    Type
REMARK                         _______ _______ _______ _____ _____    ______ ____
ROOT
ATOM      1  O   HOH     1      39.930  55.548  14.901  0.00  0.00    +0.000 OA
ENDROOT
TORSDOF 0
REMARK  Name = ../refined-set-2016/2qrl/2qrl_pocket.pdb
REMARK  112 active torsions:
REMARK  status: ('A' for Active; 'I' for Inactive)
REMARK    1  A    between atoms: _1  and  _3
REMARK    2  A    between atoms: _3  and  _4
REMARK    3  A    between atoms: _3  and  _6
REMARK    4  A    between atoms: _6  and  _7
REMARK    5  A    between atoms: _7  and  _8
REMARK    6  A    between atoms: _8  and  _9
REMARK    7  A    between atoms: _9  and  _10
REMARK    8  A    between atoms: _14  and  _16
REMARK    9  A    between atoms: _16  and  _17
REMARK   10  A    between atoms: _16  and  _19
REMARK   11  A    between atoms: _19  and  _20
REMARK   12  A    between atoms: _20  and  _21
REMARK   13  A    between atoms: _24  and  _26
REMARK   14  A    between atoms: _26  and  _27
REMARK   15  A    between atoms: _26  and  _29
REMARK   16  A    between atoms: _29  and  _30
REMARK   17  A    between atoms: _30  and  _31
REMARK   18  A    between atoms: _31  and  _32
REMARK   19  A    between atoms: _41  and  _43
REMARK   20  A    between atoms: _43  and  _44
REMARK   21  A    between atoms: _43  and  _46
REMARK   22  A    between atoms: _46  and  _47
REMARK   23  A    between atoms: _50  and  _52
REMARK   24  A    between atoms: _52  and  _53
REMARK   25  A    between atoms: _52  and  _55
REMARK   26  A    between atoms: _55  and  _56
REMARK   27  A    between atoms: _56  and  _57
REMARK   28  A    between atoms: _57  and  _58
REMARK   29  A    between atoms: _58  and  _59
REMARK   30  A    between atoms: _63  and  _65
REMARK   31  A    between atoms: _65  and  _66
REMARK   32  A    between atoms: _65  and  _68
REMARK   33  A    between atoms: _68  and  _69
REMARK   34  A    between atoms: _69  and  _70
REMARK   35  A    between atoms: _73  and  _75
REMARK   36  A    between atoms: _75  and  _76
REMARK   37  A    between atoms: _75  and  _78
REMARK   38  A    between atoms: _78  and  _79
REMARK   39  A    between atoms: _85  and  _87
REMARK   40  A    between atoms: _87  and  _88
REMARK   41  A    between atoms: _91  and  _93
REMARK   42  A    between atoms: _93  and  _94
REMARK   43  A    between atoms: _93  and  _96
REMARK   44  A    between atoms: _96  and  _97
REMARK   45  A    between atoms: _102  and  _104
REMARK   46  A    between atoms: _104  and  _105
REMARK   47  A    between atoms: _104  and  _107
REMARK   48  A    between atoms: _107  and  _108
REMARK   49  A    between atoms: _108  and  _109
REMARK   50  A    between atoms: _109  and  _110
REMARK   51  A    between atoms: _110  and  _111
REMARK   52  A    between atoms: _115  and  _117
REMARK   53  A    between atoms: _117  and  _118
REMARK   54  A    between atoms: _117  and  _120
REMARK   55  A    between atoms: _120  and  _121
REMARK   56  A    between atoms: _121  and  _122
REMARK   57  A    between atoms: _127  and  _129
REMARK   58  A    between atoms: _129  and  _130
REMARK   59  A    between atoms: _129  and  _132
REMARK   60  A    between atoms: _132  and  _133
REMARK   61  A    between atoms: _136  and  _138
REMARK   62  A    between atoms: _138  and  _139
REMARK   63  A    between atoms: _138  and  _141
REMARK   64  A    between atoms: _141  and  _142
REMARK   65  A    between atoms: _145  and  _147
REMARK   66  A    between atoms: _147  and  _148
REMARK   67  A    between atoms: _147  and  _150
REMARK   68  A    between atoms: _150  and  _151
REMARK   69  A    between atoms: _151  and  _152
REMARK   70  A    between atoms: _155  and  _157
REMARK   71  A    between atoms: _157  and  _158
REMARK   72  A    between atoms: _157  and  _160
REMARK   73  A    between atoms: _160  and  _161
REMARK   74  A    between atoms: _167  and  _169
REMARK   75  A    between atoms: _169  and  _170
REMARK   76  A    between atoms: _169  and  _172
REMARK   77  A    between atoms: _172  and  _173
REMARK   78  A    between atoms: _173  and  _174
REMARK   79  A    between atoms: _174  and  _175
REMARK   80  A    between atoms: _184  and  _186
REMARK   81  A    between atoms: _186  and  _187
REMARK   82  A    between atoms: _190  and  _192
REMARK   83  A    between atoms: _192  and  _193
REMARK   84  A    between atoms: _196  and  _198
REMARK   85  A    between atoms: _198  and  _199
REMARK   86  A    between atoms: _198  and  _201
REMARK   87  A    between atoms: _201  and  _202
REMARK   88  A    between atoms: _208  and  _210
REMARK   89  A    between atoms: _210  and  _211
REMARK   90  A    between atoms: _213  and  _215
REMARK   91  A    between atoms: _215  and  _216
REMARK   92  A    between atoms: _215  and  _218
REMARK   93  A    between atoms: _218  and  _219
REMARK   94  A    between atoms: _222  and  _224
REMARK   95  A    between atoms: _224  and  _225
REMARK   96  A    between atoms: _224  and  _227
REMARK   97  A    between atoms: _227  and  _228
REMARK   98  A    between atoms: _233  and  _235
REMARK   99  A    between atoms: _235  and  _236
REMARK  100  A    between atoms: _235  and  _238
REMARK  101  A    between atoms: _238  and  _239
REMARK  102  A    between atoms: _243  and  _244
REMARK  103  A    between atoms: _249  and  _251
REMARK  104  A    between atoms: _251  and  _252
REMARK  105  A    between atoms: _251  and  _254
REMARK  106  A    between atoms: _254  and  _255
REMARK  107  A    between atoms: _257  and  _259
REMARK  108  A    between atoms: _259  and  _260
REMARK  109  A    between atoms: _263  and  _265
REMARK  110  A    between atoms: _265  and  _266
REMARK  111  A    between atoms: _265  and  _268
REMARK  112  A    between atoms: _268  and  _269
REMARK                            x       y       z     vdW  Elec       q    Type
REMARK                         _______ _______ _______ _____ _____    ______ ____
ROOT
ATOM      1  O   HOH     1      45.260  63.448  21.682  0.00  0.00    +0.000 OA
ENDROOT
TORSDOF 0
REMARK  Name = ../refined-set-2016/2qrl/2qrl_pocket.pdb
REMARK  112 active torsions:
REMARK  status: ('A' for Active; 'I' for Inactive)
REMARK    1  A    between atoms: _1  and  _3
REMARK    2  A    between atoms: _3  and  _4
REMARK    3  A    between atoms: _3  and  _6
REMARK    4  A    between atoms: _6  and  _7
REMARK    5  A    between atoms: _7  and  _8
REMARK    6  A    between atoms: _8  and  _9
REMARK    7  A    between atoms: _9  and  _10
REMARK    8  A    between atoms: _14  and  _16
REMARK    9  A    between atoms: _16  and  _17
REMARK   10  A    between atoms: _16  and  _19
REMARK   11  A    between atoms: _19  and  _20
REMARK   12  A    between atoms: _20  and  _21
REMARK   13  A    between atoms: _24  and  _26
REMARK   14  A    between atoms: _26  and  _27
REMARK   15  A    between atoms: _26  and  _29
REMARK   16  A    between atoms: _29  and  _30
REMARK   17  A    between atoms: _30  and  _31
REMARK   18  A    between atoms: _31  and  _32
REMARK   19  A    between atoms: _41  and  _43
REMARK   20  A    between atoms: _43  and  _44
REMARK   21  A    between atoms: _43  and  _46
REMARK   22  A    between atoms: _46  and  _47
REMARK   23  A    between atoms: _50  and  _52
REMARK   24  A    between atoms: _52  and  _53
REMARK   25  A    between atoms: _52  and  _55
REMARK   26  A    between atoms: _55  and  _56
REMARK   27  A    between atoms: _56  and  _57
REMARK   28  A    between atoms: _57  and  _58
REMARK   29  A    between atoms: _58  and  _59
REMARK   30  A    between atoms: _63  and  _65
REMARK   31  A    between atoms: _65  and  _66
REMARK   32  A    between atoms: _65  and  _68
REMARK   33  A    between atoms: _68  and  _69
REMARK   34  A    between atoms: _69  and  _70
REMARK   35  A    between atoms: _73  and  _75
REMARK   36  A    between atoms: _75  and  _76
REMARK   37  A    between atoms: _75  and  _78
REMARK   38  A    between atoms: _78  and  _79
REMARK   39  A    between atoms: _85  and  _87
REMARK   40  A    between atoms: _87  and  _88
REMARK   41  A    between atoms: _91  and  _93
REMARK   42  A    between atoms: _93  and  _94
REMARK   43  A    between atoms: _93  and  _96
REMARK   44  A    between atoms: _96  and  _97
REMARK   45  A    between atoms: _102  and  _104
REMARK   46  A    between atoms: _104  and  _105
REMARK   47  A    between atoms: _104  and  _107
REMARK   48  A    between atoms: _107  and  _108
REMARK   49  A    between atoms: _108  and  _109
REMARK   50  A    between atoms: _109  and  _110
REMARK   51  A    between atoms: _110  and  _111
REMARK   52  A    between atoms: _115  and  _117
REMARK   53  A    between atoms: _117  and  _118
REMARK   54  A    between atoms: _117  and  _120
REMARK   55  A    between atoms: _120  and  _121
REMARK   56  A    between atoms: _121  and  _122
REMARK   57  A    between atoms: _127  and  _129
REMARK   58  A    between atoms: _129  and  _130
REMARK   59  A    between atoms: _129  and  _132
REMARK   60  A    between atoms: _132  and  _133
REMARK   61  A    between atoms: _136  and  _138
REMARK   62  A    between atoms: _138  and  _139
REMARK   63  A    between atoms: _138  and  _141
REMARK   64  A    between atoms: _141  and  _142
REMARK   65  A    between atoms: _145  and  _147
REMARK   66  A    between atoms: _147  and  _148
REMARK   67  A    between atoms: _147  and  _150
REMARK   68  A    between atoms: _150  and  _151
REMARK   69  A    between atoms: _151  and  _152
REMARK   70  A    between atoms: _155  and  _157
REMARK   71  A    between atoms: _157  and  _158
REMARK   72  A    between atoms: _157  and  _160
REMARK   73  A    between atoms: _160  and  _161
REMARK   74  A    between atoms: _167  and  _169
REMARK   75  A    between atoms: _169  and  _170
REMARK   76  A    between atoms: _169  and  _172
REMARK   77  A    between atoms: _172  and  _173
REMARK   78  A    between atoms: _173  and  _174
REMARK   79  A    between atoms: _174  and  _175
REMARK   80  A    between atoms: _184  and  _186
REMARK   81  A    between atoms: _186  and  _187
REMARK   82  A    between atoms: _190  and  _192
REMARK   83  A    between atoms: _192  and  _193
REMARK   84  A    between atoms: _196  and  _198
REMARK   85  A    between atoms: _198  and  _199
REMARK   86  A    between atoms: _198  and  _201
REMARK   87  A    between atoms: _201  and  _202
REMARK   88  A    between atoms: _208  and  _210
REMARK   89  A    between atoms: _210  and  _211
REMARK   90  A    between atoms: _213  and  _215
REMARK   91  A    between atoms: _215  and  _216
REMARK   92  A    between atoms: _215  and  _218
REMARK   93  A    between atoms: _218  and  _219
REMARK   94  A    between atoms: _222  and  _224
REMARK   95  A    between atoms: _224  and  _225
REMARK   96  A    between atoms: _224  and  _227
REMARK   97  A    between atoms: _227  and  _228
REMARK   98  A    between atoms: _233  and  _235
REMARK   99  A    between atoms: _235  and  _236
REMARK  100  A    between atoms: _235  and  _238
REMARK  101  A    between atoms: _238  and  _239
REMARK  102  A    between atoms: _243  and  _244
REMARK  103  A    between atoms: _249  and  _251
REMARK  104  A    between atoms: _251  and  _252
REMARK  105  A    between atoms: _251  and  _254
REMARK  106  A    between atoms: _254  and  _255
REMARK  107  A    between atoms: _257  and  _259
REMARK  108  A    between atoms: _259  and  _260
REMARK  109  A    between atoms: _263  and  _265
REMARK  110  A    between atoms: _265  and  _266
REMARK  111  A    between atoms: _265  and  _268
REMARK  112  A    between atoms: _268  and  _269
REMARK                            x       y       z     vdW  Elec       q    Type
REMARK                         _______ _______ _______ _____ _____    ______ ____
ROOT
ATOM      1  O   HOH     1      41.311  62.799  17.072  0.00  0.00    +0.000 OA
ENDROOT
TORSDOF 0
REMARK  Name = ../refined-set-2016/2qrl/2qrl_pocket.pdb
REMARK  112 active torsions:
REMARK  status: ('A' for Active; 'I' for Inactive)
REMARK    1  A    between atoms: _1  and  _3
REMARK    2  A    between atoms: _3  and  _4
REMARK    3  A    between atoms: _3  and  _6
REMARK    4  A    between atoms: _6  and  _7
REMARK    5  A    between atoms: _7  and  _8
REMARK    6  A    between atoms: _8  and  _9
REMARK    7  A    between atoms: _9  and  _10
REMARK    8  A    between atoms: _14  and  _16
REMARK    9  A    between atoms: _16  and  _17
REMARK   10  A    between atoms: _16  and  _19
REMARK   11  A    between atoms: _19  and  _20
REMARK   12  A    between atoms: _20  and  _21
REMARK   13  A    between atoms: _24  and  _26
REMARK   14  A    between atoms: _26  and  _27
REMARK   15  A    between atoms: _26  and  _29
REMARK   16  A    between atoms: _29  and  _30
REMARK   17  A    between atoms: _30  and  _31
REMARK   18  A    between atoms: _31  and  _32
REMARK   19  A    between atoms: _41  and  _43
REMARK   20  A    between atoms: _43  and  _44
REMARK   21  A    between atoms: _43  and  _46
REMARK   22  A    between atoms: _46  and  _47
REMARK   23  A    between atoms: _50  and  _52
REMARK   24  A    between atoms: _52  and  _53
REMARK   25  A    between atoms: _52  and  _55
REMARK   26  A    between atoms: _55  and  _56
REMARK   27  A    between atoms: _56  and  _57
REMARK   28  A    between atoms: _57  and  _58
REMARK   29  A    between atoms: _58  and  _59
REMARK   30  A    between atoms: _63  and  _65
REMARK   31  A    between atoms: _65  and  _66
REMARK   32  A    between atoms: _65  and  _68
REMARK   33  A    between atoms: _68  and  _69
REMARK   34  A    between atoms: _69  and  _70
REMARK   35  A    between atoms: _73  and  _75
REMARK   36  A    between atoms: _75  and  _76
REMARK   37  A    between atoms: _75  and  _78
REMARK   38  A    between atoms: _78  and  _79
REMARK   39  A    between atoms: _85  and  _87
REMARK   40  A    between atoms: _87  and  _88
REMARK   41  A    between atoms: _91  and  _93
REMARK   42  A    between atoms: _93  and  _94
REMARK   43  A    between atoms: _93  and  _96
REMARK   44  A    between atoms: _96  and  _97
REMARK   45  A    between atoms: _102  and  _104
REMARK   46  A    between atoms: _104  and  _105
REMARK   47  A    between atoms: _104  and  _107
REMARK   48  A    between atoms: _107  and  _108
REMARK   49  A    between atoms: _108  and  _109
REMARK   50  A    between atoms: _109  and  _110
REMARK   51  A    between atoms: _110  and  _111
REMARK   52  A    between atoms: _115  and  _117
REMARK   53  A    between atoms: _117  and  _118
REMARK   54  A    between atoms: _117  and  _120
REMARK   55  A    between atoms: _120  and  _121
REMARK   56  A    between atoms: _121  and  _122
REMARK   57  A    between atoms: _127  and  _129
REMARK   58  A    between atoms: _129  and  _130
REMARK   59  A    between atoms: _129  and  _132
REMARK   60  A    between atoms: _132  and  _133
REMARK   61  A    between atoms: _136  and  _138
REMARK   62  A    between atoms: _138  and  _139
REMARK   63  A    between atoms: _138  and  _141
REMARK   64  A    between atoms: _141  and  _142
REMARK   65  A    between atoms: _145  and  _147
REMARK   66  A    between atoms: _147  and  _148
REMARK   67  A    between atoms: _147  and  _150
REMARK   68  A    between atoms: _150  and  _151
REMARK   69  A    between atoms: _151  and  _152
REMARK   70  A    between atoms: _155  and  _157
REMARK   71  A    between atoms: _157  and  _158
REMARK   72  A    between atoms: _157  and  _160
REMARK   73  A    between atoms: _160  and  _161
REMARK   74  A    between atoms: _167  and  _169
REMARK   75  A    between atoms: _169  and  _170
REMARK   76  A    between atoms: _169  and  _172
REMARK   77  A    between atoms: _172  and  _173
REMARK   78  A    between atoms: _173  and  _174
REMARK   79  A    between atoms: _174  and  _175
REMARK   80  A    between atoms: _184  and  _186
REMARK   81  A    between atoms: _186  and  _187
REMARK   82  A    between atoms: _190  and  _192
REMARK   83  A    between atoms: _192  and  _193
REMARK   84  A    between atoms: _196  and  _198
REMARK   85  A    between atoms: _198  and  _199
REMARK   86  A    between atoms: _198  and  _201
REMARK   87  A    between atoms: _201  and  _202
REMARK   88  A    between atoms: _208  and  _210
REMARK   89  A    between atoms: _210  and  _211
REMARK   90  A    between atoms: _213  and  _215
REMARK   91  A    between atoms: _215  and  _216
REMARK   92  A    between atoms: _215  and  _218
REMARK   93  A    between atoms: _218  and  _219
REMARK   94  A    between atoms: _222  and  _224
REMARK   95  A    between atoms: _224  and  _225
REMARK   96  A    between atoms: _224  and  _227
REMARK   97  A    between atoms: _227  and  _228
REMARK   98  A    between atoms: _233  and  _235
REMARK   99  A    between atoms: _235  and  _236
REMARK  100  A    between atoms: _235  and  _238
REMARK  101  A    between atoms: _238  and  _239
REMARK  102  A    between atoms: _243  and  _244
REMARK  103  A    between atoms: _249  and  _251
REMARK  104  A    between atoms: _251  and  _252
REMARK  105  A    between atoms: _251  and  _254
REMARK  106  A    between atoms: _254  and  _255
REMARK  107  A    between atoms: _257  and  _259
REMARK  108  A    between atoms: _259  and  _260
REMARK  109  A    between atoms: _263  and  _265
REMARK  110  A    between atoms: _265  and  _266
REMARK  111  A    between atoms: _265  and  _268
REMARK  112  A    between atoms: _268  and  _269
REMARK                            x       y       z     vdW  Elec       q    Type
REMARK                         _______ _______ _______ _____ _____    ______ ____
ROOT
ATOM      1  O   HOH     1      45.001  62.586  23.954  0.00  0.00    +0.000 OA
ENDROOT
TORSDOF 0
REMARK  Name = ../refined-set-2016/2qrl/2qrl_pocket.pdb
REMARK  112 active torsions:
REMARK  status: ('A' for Active; 'I' for Inactive)
REMARK    1  A    between atoms: _1  and  _3
REMARK    2  A    between atoms: _3  and  _4
REMARK    3  A    between atoms: _3  and  _6
REMARK    4  A    between atoms: _6  and  _7
REMARK    5  A    between atoms: _7  and  _8
REMARK    6  A    between atoms: _8  and  _9
REMARK    7  A    between atoms: _9  and  _10
REMARK    8  A    between atoms: _14  and  _16
REMARK    9  A    between atoms: _16  and  _17
REMARK   10  A    between atoms: _16  and  _19
REMARK   11  A    between atoms: _19  and  _20
REMARK   12  A    between atoms: _20  and  _21
REMARK   13  A    between atoms: _24  and  _26
REMARK   14  A    between atoms: _26  and  _27
REMARK   15  A    between atoms: _26  and  _29
REMARK   16  A    between atoms: _29  and  _30
REMARK   17  A    between atoms: _30  and  _31
REMARK   18  A    between atoms: _31  and  _32
REMARK   19  A    between atoms: _41  and  _43
REMARK   20  A    between atoms: _43  and  _44
REMARK   21  A    between atoms: _43  and  _46
REMARK   22  A    between atoms: _46  and  _47
REMARK   23  A    between atoms: _50  and  _52
REMARK   24  A    between atoms: _52  and  _53
REMARK   25  A    between atoms: _52  and  _55
REMARK   26  A    between atoms: _55  and  _56
REMARK   27  A    between atoms: _56  and  _57
REMARK   28  A    between atoms: _57  and  _58
REMARK   29  A    between atoms: _58  and  _59
REMARK   30  A    between atoms: _63  and  _65
REMARK   31  A    between atoms: _65  and  _66
REMARK   32  A    between atoms: _65  and  _68
REMARK   33  A    between atoms: _68  and  _69
REMARK   34  A    between atoms: _69  and  _70
REMARK   35  A    between atoms: _73  and  _75
REMARK   36  A    between atoms: _75  and  _76
REMARK   37  A    between atoms: _75  and  _78
REMARK   38  A    between atoms: _78  and  _79
REMARK   39  A    between atoms: _85  and  _87
REMARK   40  A    between atoms: _87  and  _88
REMARK   41  A    between atoms: _91  and  _93
REMARK   42  A    between atoms: _93  and  _94
REMARK   43  A    between atoms: _93  and  _96
REMARK   44  A    between atoms: _96  and  _97
REMARK   45  A    between atoms: _102  and  _104
REMARK   46  A    between atoms: _104  and  _105
REMARK   47  A    between atoms: _104  and  _107
REMARK   48  A    between atoms: _107  and  _108
REMARK   49  A    between atoms: _108  and  _109
REMARK   50  A    between atoms: _109  and  _110
REMARK   51  A    between atoms: _110  and  _111
REMARK   52  A    between atoms: _115  and  _117
REMARK   53  A    between atoms: _117  and  _118
REMARK   54  A    between atoms: _117  and  _120
REMARK   55  A    between atoms: _120  and  _121
REMARK   56  A    between atoms: _121  and  _122
REMARK   57  A    between atoms: _127  and  _129
REMARK   58  A    between atoms: _129  and  _130
REMARK   59  A    between atoms: _129  and  _132
REMARK   60  A    between atoms: _132  and  _133
REMARK   61  A    between atoms: _136  and  _138
REMARK   62  A    between atoms: _138  and  _139
REMARK   63  A    between atoms: _138  and  _141
REMARK   64  A    between atoms: _141  and  _142
REMARK   65  A    between atoms: _145  and  _147
REMARK   66  A    between atoms: _147  and  _148
REMARK   67  A    between atoms: _147  and  _150
REMARK   68  A    between atoms: _150  and  _151
REMARK   69  A    between atoms: _151  and  _152
REMARK   70  A    between atoms: _155  and  _157
REMARK   71  A    between atoms: _157  and  _158
REMARK   72  A    between atoms: _157  and  _160
REMARK   73  A    between atoms: _160  and  _161
REMARK   74  A    between atoms: _167  and  _169
REMARK   75  A    between atoms: _169  and  _170
REMARK   76  A    between atoms: _169  and  _172
REMARK   77  A    between atoms: _172  and  _173
REMARK   78  A    between atoms: _173  and  _174
REMARK   79  A    between atoms: _174  and  _175
REMARK   80  A    between atoms: _184  and  _186
REMARK   81  A    between atoms: _186  and  _187
REMARK   82  A    between atoms: _190  and  _192
REMARK   83  A    between atoms: _192  and  _193
REMARK   84  A    between atoms: _196  and  _198
REMARK   85  A    between atoms: _198  and  _199
REMARK   86  A    between atoms: _198  and  _201
REMARK   87  A    between atoms: _201  and  _202
REMARK   88  A    between atoms: _208  and  _210
REMARK   89  A    between atoms: _210  and  _211
REMARK   90  A    between atoms: _213  and  _215
REMARK   91  A    between atoms: _215  and  _216
REMARK   92  A    between atoms: _215  and  _218
REMARK   93  A    between atoms: _218  and  _219
REMARK   94  A    between atoms: _222  and  _224
REMARK   95  A    between atoms: _224  and  _225
REMARK   96  A    between atoms: _224  and  _227
REMARK   97  A    between atoms: _227  and  _228
REMARK   98  A    between atoms: _233  and  _235
REMARK   99  A    between atoms: _235  and  _236
REMARK  100  A    between atoms: _235  and  _238
REMARK  101  A    between atoms: _238  and  _239
REMARK  102  A    between atoms: _243  and  _244
REMARK  103  A    between atoms: _249  and  _251
REMARK  104  A    between atoms: _251  and  _252
REMARK  105  A    between atoms: _251  and  _254
REMARK  106  A    between atoms: _254  and  _255
REMARK  107  A    between atoms: _257  and  _259
REMARK  108  A    between atoms: _259  and  _260
REMARK  109  A    between atoms: _263  and  _265
REMARK  110  A    between atoms: _265  and  _266
REMARK  111  A    between atoms: _265  and  _268
REMARK  112  A    between atoms: _268  and  _269
REMARK                            x       y       z     vdW  Elec       q    Type
REMARK                         _______ _______ _______ _____ _____    ______ ____
ROOT
ATOM      1  O   HOH     1      46.434  46.684  20.301  0.00  0.00    +0.000 OA
ENDROOT
TORSDOF 0
REMARK  Name = ../refined-set-2016/2qrl/2qrl_pocket.pdb
REMARK  112 active torsions:
REMARK  status: ('A' for Active; 'I' for Inactive)
REMARK    1  A    between atoms: _1  and  _3
REMARK    2  A    between atoms: _3  and  _4
REMARK    3  A    between atoms: _3  and  _6
REMARK    4  A    between atoms: _6  and  _7
REMARK    5  A    between atoms: _7  and  _8
REMARK    6  A    between atoms: _8  and  _9
REMARK    7  A    between atoms: _9  and  _10
REMARK    8  A    between atoms: _14  and  _16
REMARK    9  A    between atoms: _16  and  _17
REMARK   10  A    between atoms: _16  and  _19
REMARK   11  A    between atoms: _19  and  _20
REMARK   12  A    between atoms: _20  and  _21
REMARK   13  A    between atoms: _24  and  _26
REMARK   14  A    between atoms: _26  and  _27
REMARK   15  A    between atoms: _26  and  _29
REMARK   16  A    between atoms: _29  and  _30
REMARK   17  A    between atoms: _30  and  _31
REMARK   18  A    between atoms: _31  and  _32
REMARK   19  A    between atoms: _41  and  _43
REMARK   20  A    between atoms: _43  and  _44
REMARK   21  A    between atoms: _43  and  _46
REMARK   22  A    between atoms: _46  and  _47
REMARK   23  A    between atoms: _50  and  _52
REMARK   24  A    between atoms: _52  and  _53
REMARK   25  A    between atoms: _52  and  _55
REMARK   26  A    between atoms: _55  and  _56
REMARK   27  A    between atoms: _56  and  _57
REMARK   28  A    between atoms: _57  and  _58
REMARK   29  A    between atoms: _58  and  _59
REMARK   30  A    between atoms: _63  and  _65
REMARK   31  A    between atoms: _65  and  _66
REMARK   32  A    between atoms: _65  and  _68
REMARK   33  A    between atoms: _68  and  _69
REMARK   34  A    between atoms: _69  and  _70
REMARK   35  A    between atoms: _73  and  _75
REMARK   36  A    between atoms: _75  and  _76
REMARK   37  A    between atoms: _75  and  _78
REMARK   38  A    between atoms: _78  and  _79
REMARK   39  A    between atoms: _85  and  _87
REMARK   40  A    between atoms: _87  and  _88
REMARK   41  A    between atoms: _91  and  _93
REMARK   42  A    between atoms: _93  and  _94
REMARK   43  A    between atoms: _93  and  _96
REMARK   44  A    between atoms: _96  and  _97
REMARK   45  A    between atoms: _102  and  _104
REMARK   46  A    between atoms: _104  and  _105
REMARK   47  A    between atoms: _104  and  _107
REMARK   48  A    between atoms: _107  and  _108
REMARK   49  A    between atoms: _108  and  _109
REMARK   50  A    between atoms: _109  and  _110
REMARK   51  A    between atoms: _110  and  _111
REMARK   52  A    between atoms: _115  and  _117
REMARK   53  A    between atoms: _117  and  _118
REMARK   54  A    between atoms: _117  and  _120
REMARK   55  A    between atoms: _120  and  _121
REMARK   56  A    between atoms: _121  and  _122
REMARK   57  A    between atoms: _127  and  _129
REMARK   58  A    between atoms: _129  and  _130
REMARK   59  A    between atoms: _129  and  _132
REMARK   60  A    between atoms: _132  and  _133
REMARK   61  A    between atoms: _136  and  _138
REMARK   62  A    between atoms: _138  and  _139
REMARK   63  A    between atoms: _138  and  _141
REMARK   64  A    between atoms: _141  and  _142
REMARK   65  A    between atoms: _145  and  _147
REMARK   66  A    between atoms: _147  and  _148
REMARK   67  A    between atoms: _147  and  _150
REMARK   68  A    between atoms: _150  and  _151
REMARK   69  A    between atoms: _151  and  _152
REMARK   70  A    between atoms: _155  and  _157
REMARK   71  A    between atoms: _157  and  _158
REMARK   72  A    between atoms: _157  and  _160
REMARK   73  A    between atoms: _160  and  _161
REMARK   74  A    between atoms: _167  and  _169
REMARK   75  A    between atoms: _169  and  _170
REMARK   76  A    between atoms: _169  and  _172
REMARK   77  A    between atoms: _172  and  _173
REMARK   78  A    between atoms: _173  and  _174
REMARK   79  A    between atoms: _174  and  _175
REMARK   80  A    between atoms: _184  and  _186
REMARK   81  A    between atoms: _186  and  _187
REMARK   82  A    between atoms: _190  and  _192
REMARK   83  A    between atoms: _192  and  _193
REMARK   84  A    between atoms: _196  and  _198
REMARK   85  A    between atoms: _198  and  _199
REMARK   86  A    between atoms: _198  and  _201
REMARK   87  A    between atoms: _201  and  _202
REMARK   88  A    between atoms: _208  and  _210
REMARK   89  A    between atoms: _210  and  _211
REMARK   90  A    between atoms: _213  and  _215
REMARK   91  A    between atoms: _215  and  _216
REMARK   92  A    between atoms: _215  and  _218
REMARK   93  A    between atoms: _218  and  _219
REMARK   94  A    between atoms: _222  and  _224
REMARK   95  A    between atoms: _224  and  _225
REMARK   96  A    between atoms: _224  and  _227
REMARK   97  A    between atoms: _227  and  _228
REMARK   98  A    between atoms: _233  and  _235
REMARK   99  A    between atoms: _235  and  _236
REMARK  100  A    between atoms: _235  and  _238
REMARK  101  A    between atoms: _238  and  _239
REMARK  102  A    between atoms: _243  and  _244
REMARK  103  A    between atoms: _249  and  _251
REMARK  104  A    between atoms: _251  and  _252
REMARK  105  A    between atoms: _251  and  _254
REMARK  106  A    between atoms: _254  and  _255
REMARK  107  A    between atoms: _257  and  _259
REMARK  108  A    between atoms: _259  and  _260
REMARK  109  A    between atoms: _263  and  _265
REMARK  110  A    between atoms: _265  and  _266
REMARK  111  A    between atoms: _265  and  _268
REMARK  112  A    between atoms: _268  and  _269
REMARK                            x       y       z     vdW  Elec       q    Type
REMARK                         _______ _______ _______ _____ _____    ______ ____
ROOT
ATOM      1  O   HOH     1      48.555  48.922  20.963  0.00  0.00    +0.000 OA
ENDROOT
TORSDOF 0
REMARK  Name = ../refined-set-2016/2qrl/2qrl_pocket.pdb
REMARK  112 active torsions:
REMARK  status: ('A' for Active; 'I' for Inactive)
REMARK    1  A    between atoms: _1  and  _3
REMARK    2  A    between atoms: _3  and  _4
REMARK    3  A    between atoms: _3  and  _6
REMARK    4  A    between atoms: _6  and  _7
REMARK    5  A    between atoms: _7  and  _8
REMARK    6  A    between atoms: _8  and  _9
REMARK    7  A    between atoms: _9  and  _10
REMARK    8  A    between atoms: _14  and  _16
REMARK    9  A    between atoms: _16  and  _17
REMARK   10  A    between atoms: _16  and  _19
REMARK   11  A    between atoms: _19  and  _20
REMARK   12  A    between atoms: _20  and  _21
REMARK   13  A    between atoms: _24  and  _26
REMARK   14  A    between atoms: _26  and  _27
REMARK   15  A    between atoms: _26  and  _29
REMARK   16  A    between atoms: _29  and  _30
REMARK   17  A    between atoms: _30  and  _31
REMARK   18  A    between atoms: _31  and  _32
REMARK   19  A    between atoms: _41  and  _43
REMARK   20  A    between atoms: _43  and  _44
REMARK   21  A    between atoms: _43  and  _46
REMARK   22  A    between atoms: _46  and  _47
REMARK   23  A    between atoms: _50  and  _52
REMARK   24  A    between atoms: _52  and  _53
REMARK   25  A    between atoms: _52  and  _55
REMARK   26  A    between atoms: _55  and  _56
REMARK   27  A    between atoms: _56  and  _57
REMARK   28  A    between atoms: _57  and  _58
REMARK   29  A    between atoms: _58  and  _59
REMARK   30  A    between atoms: _63  and  _65
REMARK   31  A    between atoms: _65  and  _66
REMARK   32  A    between atoms: _65  and  _68
REMARK   33  A    between atoms: _68  and  _69
REMARK   34  A    between atoms: _69  and  _70
REMARK   35  A    between atoms: _73  and  _75
REMARK   36  A    between atoms: _75  and  _76
REMARK   37  A    between atoms: _75  and  _78
REMARK   38  A    between atoms: _78  and  _79
REMARK   39  A    between atoms: _85  and  _87
REMARK   40  A    between atoms: _87  and  _88
REMARK   41  A    between atoms: _91  and  _93
REMARK   42  A    between atoms: _93  and  _94
REMARK   43  A    between atoms: _93  and  _96
REMARK   44  A    between atoms: _96  and  _97
REMARK   45  A    between atoms: _102  and  _104
REMARK   46  A    between atoms: _104  and  _105
REMARK   47  A    between atoms: _104  and  _107
REMARK   48  A    between atoms: _107  and  _108
REMARK   49  A    between atoms: _108  and  _109
REMARK   50  A    between atoms: _109  and  _110
REMARK   51  A    between atoms: _110  and  _111
REMARK   52  A    between atoms: _115  and  _117
REMARK   53  A    between atoms: _117  and  _118
REMARK   54  A    between atoms: _117  and  _120
REMARK   55  A    between atoms: _120  and  _121
REMARK   56  A    between atoms: _121  and  _122
REMARK   57  A    between atoms: _127  and  _129
REMARK   58  A    between atoms: _129  and  _130
REMARK   59  A    between atoms: _129  and  _132
REMARK   60  A    between atoms: _132  and  _133
REMARK   61  A    between atoms: _136  and  _138
REMARK   62  A    between atoms: _138  and  _139
REMARK   63  A    between atoms: _138  and  _141
REMARK   64  A    between atoms: _141  and  _142
REMARK   65  A    between atoms: _145  and  _147
REMARK   66  A    between atoms: _147  and  _148
REMARK   67  A    between atoms: _147  and  _150
REMARK   68  A    between atoms: _150  and  _151
REMARK   69  A    between atoms: _151  and  _152
REMARK   70  A    between atoms: _155  and  _157
REMARK   71  A    between atoms: _157  and  _158
REMARK   72  A    between atoms: _157  and  _160
REMARK   73  A    between atoms: _160  and  _161
REMARK   74  A    between atoms: _167  and  _169
REMARK   75  A    between atoms: _169  and  _170
REMARK   76  A    between atoms: _169  and  _172
REMARK   77  A    between atoms: _172  and  _173
REMARK   78  A    between atoms: _173  and  _174
REMARK   79  A    between atoms: _174  and  _175
REMARK   80  A    between atoms: _184  and  _186
REMARK   81  A    between atoms: _186  and  _187
REMARK   82  A    between atoms: _190  and  _192
REMARK   83  A    between atoms: _192  and  _193
REMARK   84  A    between atoms: _196  and  _198
REMARK   85  A    between atoms: _198  and  _199
REMARK   86  A    between atoms: _198  and  _201
REMARK   87  A    between atoms: _201  and  _202
REMARK   88  A    between atoms: _208  and  _210
REMARK   89  A    between atoms: _210  and  _211
REMARK   90  A    between atoms: _213  and  _215
REMARK   91  A    between atoms: _215  and  _216
REMARK   92  A    between atoms: _215  and  _218
REMARK   93  A    between atoms: _218  and  _219
REMARK   94  A    between atoms: _222  and  _224
REMARK   95  A    between atoms: _224  and  _225
REMARK   96  A    between atoms: _224  and  _227
REMARK   97  A    between atoms: _227  and  _228
REMARK   98  A    between atoms: _233  and  _235
REMARK   99  A    between atoms: _235  and  _236
REMARK  100  A    between atoms: _235  and  _238
REMARK  101  A    between atoms: _238  and  _239
REMARK  102  A    between atoms: _243  and  _244
REMARK  103  A    between atoms: _249  and  _251
REMARK  104  A    between atoms: _251  and  _252
REMARK  105  A    between atoms: _251  and  _254
REMARK  106  A    between atoms: _254  and  _255
REMARK  107  A    between atoms: _257  and  _259
REMARK  108  A    between atoms: _259  and  _260
REMARK  109  A    between atoms: _263  and  _265
REMARK  110  A    between atoms: _265  and  _266
REMARK  111  A    between atoms: _265  and  _268
REMARK  112  A    between atoms: _268  and  _269
REMARK                            x       y       z     vdW  Elec       q    Type
REMARK                         _______ _______ _______ _____ _____    ______ ____
ROOT
ATOM      1  O   HOH     1      52.464  55.151  25.050  0.00  0.00    +0.000 OA
ENDROOT
TORSDOF 0
REMARK  Name = ../refined-set-2016/2qrl/2qrl_pocket.pdb
REMARK  112 active torsions:
REMARK  status: ('A' for Active; 'I' for Inactive)
REMARK    1  A    between atoms: _1  and  _3
REMARK    2  A    between atoms: _3  and  _4
REMARK    3  A    between atoms: _3  and  _6
REMARK    4  A    between atoms: _6  and  _7
REMARK    5  A    between atoms: _7  and  _8
REMARK    6  A    between atoms: _8  and  _9
REMARK    7  A    between atoms: _9  and  _10
REMARK    8  A    between atoms: _14  and  _16
REMARK    9  A    between atoms: _16  and  _17
REMARK   10  A    between atoms: _16  and  _19
REMARK   11  A    between atoms: _19  and  _20
REMARK   12  A    between atoms: _20  and  _21
REMARK   13  A    between atoms: _24  and  _26
REMARK   14  A    between atoms: _26  and  _27
REMARK   15  A    between atoms: _26  and  _29
REMARK   16  A    between atoms: _29  and  _30
REMARK   17  A    between atoms: _30  and  _31
REMARK   18  A    between atoms: _31  and  _32
REMARK   19  A    between atoms: _41  and  _43
REMARK   20  A    between atoms: _43  and  _44
REMARK   21  A    between atoms: _43  and  _46
REMARK   22  A    between atoms: _46  and  _47
REMARK   23  A    between atoms: _50  and  _52
REMARK   24  A    between atoms: _52  and  _53
REMARK   25  A    between atoms: _52  and  _55
REMARK   26  A    between atoms: _55  and  _56
REMARK   27  A    between atoms: _56  and  _57
REMARK   28  A    between atoms: _57  and  _58
REMARK   29  A    between atoms: _58  and  _59
REMARK   30  A    between atoms: _63  and  _65
REMARK   31  A    between atoms: _65  and  _66
REMARK   32  A    between atoms: _65  and  _68
REMARK   33  A    between atoms: _68  and  _69
REMARK   34  A    between atoms: _69  and  _70
REMARK   35  A    between atoms: _73  and  _75
REMARK   36  A    between atoms: _75  and  _76
REMARK   37  A    between atoms: _75  and  _78
REMARK   38  A    between atoms: _78  and  _79
REMARK   39  A    between atoms: _85  and  _87
REMARK   40  A    between atoms: _87  and  _88
REMARK   41  A    between atoms: _91  and  _93
REMARK   42  A    between atoms: _93  and  _94
REMARK   43  A    between atoms: _93  and  _96
REMARK   44  A    between atoms: _96  and  _97
REMARK   45  A    between atoms: _102  and  _104
REMARK   46  A    between atoms: _104  and  _105
REMARK   47  A    between atoms: _104  and  _107
REMARK   48  A    between atoms: _107  and  _108
REMARK   49  A    between atoms: _108  and  _109
REMARK   50  A    between atoms: _109  and  _110
REMARK   51  A    between atoms: _110  and  _111
REMARK   52  A    between atoms: _115  and  _117
REMARK   53  A    between atoms: _117  and  _118
REMARK   54  A    between atoms: _117  and  _120
REMARK   55  A    between atoms: _120  and  _121
REMARK   56  A    between atoms: _121  and  _122
REMARK   57  A    between atoms: _127  and  _129
REMARK   58  A    between atoms: _129  and  _130
REMARK   59  A    between atoms: _129  and  _132
REMARK   60  A    between atoms: _132  and  _133
REMARK   61  A    between atoms: _136  and  _138
REMARK   62  A    between atoms: _138  and  _139
REMARK   63  A    between atoms: _138  and  _141
REMARK   64  A    between atoms: _141  and  _142
REMARK   65  A    between atoms: _145  and  _147
REMARK   66  A    between atoms: _147  and  _148
REMARK   67  A    between atoms: _147  and  _150
REMARK   68  A    between atoms: _150  and  _151
REMARK   69  A    between atoms: _151  and  _152
REMARK   70  A    between atoms: _155  and  _157
REMARK   71  A    between atoms: _157  and  _158
REMARK   72  A    between atoms: _157  and  _160
REMARK   73  A    between atoms: _160  and  _161
REMARK   74  A    between atoms: _167  and  _169
REMARK   75  A    between atoms: _169  and  _170
REMARK   76  A    between atoms: _169  and  _172
REMARK   77  A    between atoms: _172  and  _173
REMARK   78  A    between atoms: _173  and  _174
REMARK   79  A    between atoms: _174  and  _175
REMARK   80  A    between atoms: _184  and  _186
REMARK   81  A    between atoms: _186  and  _187
REMARK   82  A    between atoms: _190  and  _192
REMARK   83  A    between atoms: _192  and  _193
REMARK   84  A    between atoms: _196  and  _198
REMARK   85  A    between atoms: _198  and  _199
REMARK   86  A    between atoms: _198  and  _201
REMARK   87  A    between atoms: _201  and  _202
REMARK   88  A    between atoms: _208  and  _210
REMARK   89  A    between atoms: _210  and  _211
REMARK   90  A    between atoms: _213  and  _215
REMARK   91  A    between atoms: _215  and  _216
REMARK   92  A    between atoms: _215  and  _218
REMARK   93  A    between atoms: _218  and  _219
REMARK   94  A    between atoms: _222  and  _224
REMARK   95  A    between atoms: _224  and  _225
REMARK   96  A    between atoms: _224  and  _227
REMARK   97  A    between atoms: _227  and  _228
REMARK   98  A    between atoms: _233  and  _235
REMARK   99  A    between atoms: _235  and  _236
REMARK  100  A    between atoms: _235  and  _238
REMARK  101  A    between atoms: _238  and  _239
REMARK  102  A    between atoms: _243  and  _244
REMARK  103  A    between atoms: _249  and  _251
REMARK  104  A    between atoms: _251  and  _252
REMARK  105  A    between atoms: _251  and  _254
REMARK  106  A    between atoms: _254  and  _255
REMARK  107  A    between atoms: _257  and  _259
REMARK  108  A    between atoms: _259  and  _260
REMARK  109  A    between atoms: _263  and  _265
REMARK  110  A    between atoms: _265  and  _266
REMARK  111  A    between atoms: _265  and  _268
REMARK  112  A    between atoms: _268  and  _269
REMARK                            x       y       z     vdW  Elec       q    Type
REMARK                         _______ _______ _______ _____ _____    ______ ____
ROOT
ATOM      1  O   HOH     1      41.780  56.108  16.902  0.00  0.00    +0.000 OA
ENDROOT
TORSDOF 0
