REMARK  Name = ../refined-set-2016/1izi/1izi_pocket.pdb
REMARK  218 active torsions:
REMARK  status: ('A' for Active; 'I' for Inactive)
REMARK    1  A    between atoms: _1  and  _3
REMARK    2  A    between atoms: _3  and  _4
REMARK    3  A    between atoms: _3  and  _6
REMARK    4  A    between atoms: _6  and  _7
REMARK    5  A    between atoms: _7  and  _8
REMARK    6  A    between atoms: _8  and  _9
REMARK    7  A    between atoms: _18  and  _20
REMARK    8  A    between atoms: _20  and  _21
REMARK    9  A    between atoms: _20  and  _23
REMARK   10  A    between atoms: _23  and  _24
REMARK   11  A    between atoms: _27  and  _29
REMARK   12  A    between atoms: _29  and  _30
REMARK   13  A    between atoms: _29  and  _32
REMARK   14  A    between atoms: _32  and  _33
REMARK   15  A    between atoms: _36  and  _38
REMARK   16  A    between atoms: _38  and  _39
REMARK   17  A    between atoms: _38  and  _41
REMARK   18  A    between atoms: _41  and  _42
REMARK   19  A    between atoms: _45  and  _47
REMARK   20  A    between atoms: _47  and  _48
REMARK   21  A    between atoms: _47  and  _50
REMARK   22  A    between atoms: _50  and  _51
REMARK   23  A    between atoms: _54  and  _56
REMARK   24  A    between atoms: _56  and  _57
REMARK   25  A    between atoms: _59  and  _61
REMARK   26  A    between atoms: _61  and  _62
REMARK   27  A    between atoms: _65  and  _67
REMARK   28  A    between atoms: _67  and  _68
REMARK   29  A    between atoms: _67  and  _70
REMARK   30  A    between atoms: _70  and  _71
REMARK   31  A    between atoms: _74  and  _76
REMARK   32  A    between atoms: _76  and  _77
REMARK   33  A    between atoms: _76  and  _79
REMARK   34  A    between atoms: _79  and  _80
REMARK   35  A    between atoms: _83  and  _85
REMARK   36  A    between atoms: _85  and  _86
REMARK   37  A    between atoms: _85  and  _88
REMARK   38  A    between atoms: _88  and  _89
REMARK   39  A    between atoms: _92  and  _94
REMARK   40  A    between atoms: _94  and  _95
REMARK   41  A    between atoms: _94  and  _97
REMARK   42  A    between atoms: _100  and  _102
REMARK   43  A    between atoms: _102  and  _103
REMARK   44  A    between atoms: _102  and  _105
REMARK   45  A    between atoms: _105  and  _106
REMARK   46  A    between atoms: _109  and  _111
REMARK   47  A    between atoms: _111  and  _112
REMARK   48  A    between atoms: _111  and  _114
REMARK   49  A    between atoms: _114  and  _115
REMARK   50  A    between atoms: _115  and  _116
REMARK   51  A    between atoms: _118  and  _120
REMARK   52  A    between atoms: _120  and  _121
REMARK   53  A    between atoms: _120  and  _123
REMARK   54  A    between atoms: _123  and  _124
REMARK   55  A    between atoms: _127  and  _129
REMARK   56  A    between atoms: _129  and  _130
REMARK   57  A    between atoms: _132  and  _134
REMARK   58  A    between atoms: _134  and  _135
REMARK   59  A    between atoms: _137  and  _139
REMARK   60  A    between atoms: _139  and  _140
REMARK   61  A    between atoms: _139  and  _142
REMARK   62  A    between atoms: _142  and  _143
REMARK   63  A    between atoms: _146  and  _148
REMARK   64  A    between atoms: _148  and  _149
REMARK   65  A    between atoms: _151  and  _153
REMARK   66  A    between atoms: _153  and  _154
REMARK   67  A    between atoms: _156  and  _158
REMARK   68  A    between atoms: _158  and  _159
REMARK   69  A    between atoms: _158  and  _161
REMARK   70  A    between atoms: _161  and  _162
REMARK   71  A    between atoms: _165  and  _167
REMARK   72  A    between atoms: _167  and  _168
REMARK   73  A    between atoms: _167  and  _170
REMARK   74  A    between atoms: _173  and  _175
REMARK   75  A    between atoms: _175  and  _176
REMARK   76  A    between atoms: _175  and  _178
REMARK   77  A    between atoms: _178  and  _179
REMARK   78  A    between atoms: _182  and  _184
REMARK   79  A    between atoms: _184  and  _185
REMARK   80  A    between atoms: _184  and  _187
REMARK   81  A    between atoms: _187  and  _188
REMARK   82  A    between atoms: _192  and  _193
REMARK   83  A    between atoms: _198  and  _200
REMARK   84  A    between atoms: _200  and  _201
REMARK   85  A    between atoms: _200  and  _203
REMARK   86  A    between atoms: _203  and  _204
REMARK   87  A    between atoms: _207  and  _209
REMARK   88  A    between atoms: _209  and  _210
REMARK   89  A    between atoms: _209  and  _212
REMARK   90  A    between atoms: _212  and  _213
REMARK   91  A    between atoms: _218  and  _220
REMARK   92  A    between atoms: _220  and  _221
REMARK   93  A    between atoms: _220  and  _223
REMARK   94  A    between atoms: _226  and  _228
REMARK   95  A    between atoms: _228  and  _229
REMARK   96  A    between atoms: _228  and  _231
REMARK   97  A    between atoms: _231  and  _232
REMARK   98  A    between atoms: _235  and  _237
REMARK   99  A    between atoms: _237  and  _238
REMARK  100  A    between atoms: _240  and  _242
REMARK  101  A    between atoms: _242  and  _243
REMARK  102  A    between atoms: _242  and  _245
REMARK  103  A    between atoms: _245  and  _246
REMARK  104  A    between atoms: _246  and  _247
REMARK  105  A    between atoms: _247  and  _248
REMARK  106  A    between atoms: _257  and  _259
REMARK  107  A    between atoms: _259  and  _260
REMARK  108  A    between atoms: _259  and  _262
REMARK  109  A    between atoms: _262  and  _263
REMARK  110  A    between atoms: _268  and  _270
REMARK  111  A    between atoms: _270  and  _271
REMARK  112  A    between atoms: _270  and  _273
REMARK  113  A    between atoms: _273  and  _274
REMARK  114  A    between atoms: _274  and  _275
REMARK  115  A    between atoms: _275  and  _276
REMARK  116  A    between atoms: _285  and  _287
REMARK  117  A    between atoms: _287  and  _288
REMARK  118  A    between atoms: _287  and  _290
REMARK  119  A    between atoms: _290  and  _291
REMARK  120  A    between atoms: _294  and  _296
REMARK  121  A    between atoms: _296  and  _297
REMARK  122  A    between atoms: _296  and  _299
REMARK  123  A    between atoms: _299  and  _300
REMARK  124  A    between atoms: _303  and  _305
REMARK  125  A    between atoms: _305  and  _306
REMARK  126  A    between atoms: _305  and  _308
REMARK  127  A    between atoms: _308  and  _309
REMARK  128  A    between atoms: _312  and  _314
REMARK  129  A    between atoms: _314  and  _315
REMARK  130  A    between atoms: _314  and  _317
REMARK  131  A    between atoms: _317  and  _318
REMARK  132  A    between atoms: _321  and  _323
REMARK  133  A    between atoms: _323  and  _324
REMARK  134  A    between atoms: _326  and  _328
REMARK  135  A    between atoms: _328  and  _329
REMARK  136  A    between atoms: _332  and  _334
REMARK  137  A    between atoms: _334  and  _335
REMARK  138  A    between atoms: _334  and  _337
REMARK  139  A    between atoms: _337  and  _338
REMARK  140  A    between atoms: _341  and  _343
REMARK  141  A    between atoms: _343  and  _344
REMARK  142  A    between atoms: _343  and  _346
REMARK  143  A    between atoms: _346  and  _347
REMARK  144  A    between atoms: _350  and  _352
REMARK  145  A    between atoms: _352  and  _353
REMARK  146  A    between atoms: _352  and  _355
REMARK  147  A    between atoms: _355  and  _356
REMARK  148  A    between atoms: _359  and  _361
REMARK  149  A    between atoms: _361  and  _362
REMARK  150  A    between atoms: _361  and  _364
REMARK  151  A    between atoms: _367  and  _369
REMARK  152  A    between atoms: _369  and  _370
REMARK  153  A    between atoms: _369  and  _372
REMARK  154  A    between atoms: _372  and  _373
REMARK  155  A    between atoms: _373  and  _374
REMARK  156  A    between atoms: _376  and  _378
REMARK  157  A    between atoms: _378  and  _379
REMARK  158  A    between atoms: _378  and  _381
REMARK  159  A    between atoms: _381  and  _382
REMARK  160  A    between atoms: _385  and  _387
REMARK  161  A    between atoms: _387  and  _388
REMARK  162  A    between atoms: _390  and  _392
REMARK  163  A    between atoms: _392  and  _393
REMARK  164  A    between atoms: _395  and  _397
REMARK  165  A    between atoms: _397  and  _398
REMARK  166  A    between atoms: _397  and  _400
REMARK  167  A    between atoms: _400  and  _401
REMARK  168  A    between atoms: _404  and  _406
REMARK  169  A    between atoms: _406  and  _407
REMARK  170  A    between atoms: _409  and  _411
REMARK  171  A    between atoms: _411  and  _412
REMARK  172  A    between atoms: _414  and  _416
REMARK  173  A    between atoms: _416  and  _417
REMARK  174  A    between atoms: _416  and  _419
REMARK  175  A    between atoms: _419  and  _420
REMARK  176  A    between atoms: _426  and  _428
REMARK  177  A    between atoms: _428  and  _429
REMARK  178  A    between atoms: _428  and  _431
REMARK  179  A    between atoms: _431  and  _432
REMARK  180  A    between atoms: _435  and  _437
REMARK  181  A    between atoms: _437  and  _438
REMARK  182  A    between atoms: _437  and  _440
REMARK  183  A    between atoms: _443  and  _445
REMARK  184  A    between atoms: _445  and  _446
REMARK  185  A    between atoms: _445  and  _448
REMARK  186  A    between atoms: _448  and  _449
REMARK  187  A    between atoms: _452  and  _454
REMARK  188  A    between atoms: _454  and  _455
REMARK  189  A    between atoms: _454  and  _457
REMARK  190  A    between atoms: _457  and  _458
REMARK  191  A    between atoms: _462  and  _463
REMARK  192  A    between atoms: _468  and  _470
REMARK  193  A    between atoms: _470  and  _471
REMARK  194  A    between atoms: _470  and  _473
REMARK  195  A    between atoms: _473  and  _474
REMARK  196  A    between atoms: _477  and  _479
REMARK  197  A    between atoms: _479  and  _480
REMARK  198  A    between atoms: _479  and  _482
REMARK  199  A    between atoms: _482  and  _483
REMARK  200  A    between atoms: _488  and  _490
REMARK  201  A    between atoms: _490  and  _491
REMARK  202  A    between atoms: _490  and  _493
REMARK  203  A    between atoms: _496  and  _498
REMARK  204  A    between atoms: _498  and  _499
REMARK  205  A    between atoms: _498  and  _501
REMARK  206  A    between atoms: _501  and  _502
REMARK  207  A    between atoms: _505  and  _507
REMARK  208  A    between atoms: _507  and  _508
REMARK  209  A    between atoms: _510  and  _512
REMARK  210  A    between atoms: _512  and  _513
REMARK  211  A    between atoms: _512  and  _515
REMARK  212  A    between atoms: _515  and  _516
REMARK  213  A    between atoms: _516  and  _517
REMARK  214  A    between atoms: _517  and  _518
REMARK  215  A    between atoms: _527  and  _529
REMARK  216  A    between atoms: _529  and  _530
REMARK  217  A    between atoms: _529  and  _532
REMARK  218  A    between atoms: _532  and  _533
REMARK                            x       y       z     vdW  Elec       q    Type
REMARK                         _______ _______ _______ _____ _____    ______ ____
ROOT
ATOM      1  NE  ARG A   1      -3.437  22.973  -5.664  0.00  0.00    -0.265 N 
ATOM      2  CZ  ARG A   1      -2.841  21.843  -5.397  0.00  0.00    +0.342 C 
ATOM      3  NH2 ARG A   1      -2.407  21.607  -4.137  0.00  0.00    -0.292 N 
ATOM      4 HH21 ARG A   1      -2.550  22.322  -3.395  0.00  0.00    +0.255 HD
ATOM      5 HH22 ARG A   1      -1.930  20.711  -3.910  0.00  0.00    +0.255 HD
ATOM      6  NH1 ARG A   1      -2.683  20.960  -6.390  0.00  0.00    -0.292 N 
ATOM      7 HH11 ARG A   1      -2.212  20.051  -6.207  0.00  0.00    +0.255 HD
ATOM      8 HH12 ARG A   1      -3.031  21.183  -7.344  0.00  0.00    +0.255 HD
ATOM      9  HE  ARG A   1      -3.783  23.124  -6.633  0.00  0.00    +0.259 HD
ENDROOT
BRANCH   1  10
ATOM     10  CD  ARG A   1      -3.646  24.029  -4.696  0.00  0.00    +0.174 C 
BRANCH  10  11
ATOM     11  CG  ARG A   1      -4.719  24.927  -5.177  0.00  0.00    +0.045 C 
BRANCH  11  12
ATOM     12  CB  ARG A   1      -4.736  26.218  -4.472  0.00  0.00    +0.029 C 
BRANCH  12  13
ATOM     13  CA  ARG A   1      -5.920  27.019  -4.889  0.00  0.00    +0.133 C 
BRANCH  13  14
ATOM     14  N   ARG A   1      -5.725  27.662  -6.205  0.00  0.00    -0.239 NA
ATOM     15  H   ARG A   1      -4.861  27.476  -6.754  0.00  0.00    +0.142 HD
ENDBRANCH  13  14
BRANCH  13  16
ATOM     16  C   ARG A   1      -6.128  28.080  -3.859  0.00  0.00    +0.224 C 
ATOM     17  O   ARG A   1      -5.438  29.109  -3.918  0.00  0.00    -0.287 OA
ENDBRANCH  13  16
ENDBRANCH  12  13
ENDBRANCH  11  12
ENDBRANCH  10  11
ENDBRANCH   1  10
TORSDOF 6
REMARK  Name = ../refined-set-2016/1izi/1izi_pocket.pdb
REMARK  218 active torsions:
REMARK  status: ('A' for Active; 'I' for Inactive)
REMARK    1  A    between atoms: _1  and  _3
REMARK    2  A    between atoms: _3  and  _4
REMARK    3  A    between atoms: _3  and  _6
REMARK    4  A    between atoms: _6  and  _7
REMARK    5  A    between atoms: _7  and  _8
REMARK    6  A    between atoms: _8  and  _9
REMARK    7  A    between atoms: _18  and  _20
REMARK    8  A    between atoms: _20  and  _21
REMARK    9  A    between atoms: _20  and  _23
REMARK   10  A    between atoms: _23  and  _24
REMARK   11  A    between atoms: _27  and  _29
REMARK   12  A    between atoms: _29  and  _30
REMARK   13  A    between atoms: _29  and  _32
REMARK   14  A    between atoms: _32  and  _33
REMARK   15  A    between atoms: _36  and  _38
REMARK   16  A    between atoms: _38  and  _39
REMARK   17  A    between atoms: _38  and  _41
REMARK   18  A    between atoms: _41  and  _42
REMARK   19  A    between atoms: _45  and  _47
REMARK   20  A    between atoms: _47  and  _48
REMARK   21  A    between atoms: _47  and  _50
REMARK   22  A    between atoms: _50  and  _51
REMARK   23  A    between atoms: _54  and  _56
REMARK   24  A    between atoms: _56  and  _57
REMARK   25  A    between atoms: _59  and  _61
REMARK   26  A    between atoms: _61  and  _62
REMARK   27  A    between atoms: _65  and  _67
REMARK   28  A    between atoms: _67  and  _68
REMARK   29  A    between atoms: _67  and  _70
REMARK   30  A    between atoms: _70  and  _71
REMARK   31  A    between atoms: _74  and  _76
REMARK   32  A    between atoms: _76  and  _77
REMARK   33  A    between atoms: _76  and  _79
REMARK   34  A    between atoms: _79  and  _80
REMARK   35  A    between atoms: _83  and  _85
REMARK   36  A    between atoms: _85  and  _86
REMARK   37  A    between atoms: _85  and  _88
REMARK   38  A    between atoms: _88  and  _89
REMARK   39  A    between atoms: _92  and  _94
REMARK   40  A    between atoms: _94  and  _95
REMARK   41  A    between atoms: _94  and  _97
REMARK   42  A    between atoms: _100  and  _102
REMARK   43  A    between atoms: _102  and  _103
REMARK   44  A    between atoms: _102  and  _105
REMARK   45  A    between atoms: _105  and  _106
REMARK   46  A    between atoms: _109  and  _111
REMARK   47  A    between atoms: _111  and  _112
REMARK   48  A    between atoms: _111  and  _114
REMARK   49  A    between atoms: _114  and  _115
REMARK   50  A    between atoms: _115  and  _116
REMARK   51  A    between atoms: _118  and  _120
REMARK   52  A    between atoms: _120  and  _121
REMARK   53  A    between atoms: _120  and  _123
REMARK   54  A    between atoms: _123  and  _124
REMARK   55  A    between atoms: _127  and  _129
REMARK   56  A    between atoms: _129  and  _130
REMARK   57  A    between atoms: _132  and  _134
REMARK   58  A    between atoms: _134  and  _135
REMARK   59  A    between atoms: _137  and  _139
REMARK   60  A    between atoms: _139  and  _140
REMARK   61  A    between atoms: _139  and  _142
REMARK   62  A    between atoms: _142  and  _143
REMARK   63  A    between atoms: _146  and  _148
REMARK   64  A    between atoms: _148  and  _149
REMARK   65  A    between atoms: _151  and  _153
REMARK   66  A    between atoms: _153  and  _154
REMARK   67  A    between atoms: _156  and  _158
REMARK   68  A    between atoms: _158  and  _159
REMARK   69  A    between atoms: _158  and  _161
REMARK   70  A    between atoms: _161  and  _162
REMARK   71  A    between atoms: _165  and  _167
REMARK   72  A    between atoms: _167  and  _168
REMARK   73  A    between atoms: _167  and  _170
REMARK   74  A    between atoms: _173  and  _175
REMARK   75  A    between atoms: _175  and  _176
REMARK   76  A    between atoms: _175  and  _178
REMARK   77  A    between atoms: _178  and  _179
REMARK   78  A    between atoms: _182  and  _184
REMARK   79  A    between atoms: _184  and  _185
REMARK   80  A    between atoms: _184  and  _187
REMARK   81  A    between atoms: _187  and  _188
REMARK   82  A    between atoms: _192  and  _193
REMARK   83  A    between atoms: _198  and  _200
REMARK   84  A    between atoms: _200  and  _201
REMARK   85  A    between atoms: _200  and  _203
REMARK   86  A    between atoms: _203  and  _204
REMARK   87  A    between atoms: _207  and  _209
REMARK   88  A    between atoms: _209  and  _210
REMARK   89  A    between atoms: _209  and  _212
REMARK   90  A    between atoms: _212  and  _213
REMARK   91  A    between atoms: _218  and  _220
REMARK   92  A    between atoms: _220  and  _221
REMARK   93  A    between atoms: _220  and  _223
REMARK   94  A    between atoms: _226  and  _228
REMARK   95  A    between atoms: _228  and  _229
REMARK   96  A    between atoms: _228  and  _231
REMARK   97  A    between atoms: _231  and  _232
REMARK   98  A    between atoms: _235  and  _237
REMARK   99  A    between atoms: _237  and  _238
REMARK  100  A    between atoms: _240  and  _242
REMARK  101  A    between atoms: _242  and  _243
REMARK  102  A    between atoms: _242  and  _245
REMARK  103  A    between atoms: _245  and  _246
REMARK  104  A    between atoms: _246  and  _247
REMARK  105  A    between atoms: _247  and  _248
REMARK  106  A    between atoms: _257  and  _259
REMARK  107  A    between atoms: _259  and  _260
REMARK  108  A    between atoms: _259  and  _262
REMARK  109  A    between atoms: _262  and  _263
REMARK  110  A    between atoms: _268  and  _270
REMARK  111  A    between atoms: _270  and  _271
REMARK  112  A    between atoms: _270  and  _273
REMARK  113  A    between atoms: _273  and  _274
REMARK  114  A    between atoms: _274  and  _275
REMARK  115  A    between atoms: _275  and  _276
REMARK  116  A    between atoms: _285  and  _287
REMARK  117  A    between atoms: _287  and  _288
REMARK  118  A    between atoms: _287  and  _290
REMARK  119  A    between atoms: _290  and  _291
REMARK  120  A    between atoms: _294  and  _296
REMARK  121  A    between atoms: _296  and  _297
REMARK  122  A    between atoms: _296  and  _299
REMARK  123  A    between atoms: _299  and  _300
REMARK  124  A    between atoms: _303  and  _305
REMARK  125  A    between atoms: _305  and  _306
REMARK  126  A    between atoms: _305  and  _308
REMARK  127  A    between atoms: _308  and  _309
REMARK  128  A    between atoms: _312  and  _314
REMARK  129  A    between atoms: _314  and  _315
REMARK  130  A    between atoms: _314  and  _317
REMARK  131  A    between atoms: _317  and  _318
REMARK  132  A    between atoms: _321  and  _323
REMARK  133  A    between atoms: _323  and  _324
REMARK  134  A    between atoms: _326  and  _328
REMARK  135  A    between atoms: _328  and  _329
REMARK  136  A    between atoms: _332  and  _334
REMARK  137  A    between atoms: _334  and  _335
REMARK  138  A    between atoms: _334  and  _337
REMARK  139  A    between atoms: _337  and  _338
REMARK  140  A    between atoms: _341  and  _343
REMARK  141  A    between atoms: _343  and  _344
REMARK  142  A    between atoms: _343  and  _346
REMARK  143  A    between atoms: _346  and  _347
REMARK  144  A    between atoms: _350  and  _352
REMARK  145  A    between atoms: _352  and  _353
REMARK  146  A    between atoms: _352  and  _355
REMARK  147  A    between atoms: _355  and  _356
REMARK  148  A    between atoms: _359  and  _361
REMARK  149  A    between atoms: _361  and  _362
REMARK  150  A    between atoms: _361  and  _364
REMARK  151  A    between atoms: _367  and  _369
REMARK  152  A    between atoms: _369  and  _370
REMARK  153  A    between atoms: _369  and  _372
REMARK  154  A    between atoms: _372  and  _373
REMARK  155  A    between atoms: _373  and  _374
REMARK  156  A    between atoms: _376  and  _378
REMARK  157  A    between atoms: _378  and  _379
REMARK  158  A    between atoms: _378  and  _381
REMARK  159  A    between atoms: _381  and  _382
REMARK  160  A    between atoms: _385  and  _387
REMARK  161  A    between atoms: _387  and  _388
REMARK  162  A    between atoms: _390  and  _392
REMARK  163  A    between atoms: _392  and  _393
REMARK  164  A    between atoms: _395  and  _397
REMARK  165  A    between atoms: _397  and  _398
REMARK  166  A    between atoms: _397  and  _400
REMARK  167  A    between atoms: _400  and  _401
REMARK  168  A    between atoms: _404  and  _406
REMARK  169  A    between atoms: _406  and  _407
REMARK  170  A    between atoms: _409  and  _411
REMARK  171  A    between atoms: _411  and  _412
REMARK  172  A    between atoms: _414  and  _416
REMARK  173  A    between atoms: _416  and  _417
REMARK  174  A    between atoms: _416  and  _419
REMARK  175  A    between atoms: _419  and  _420
REMARK  176  A    between atoms: _426  and  _428
REMARK  177  A    between atoms: _428  and  _429
REMARK  178  A    between atoms: _428  and  _431
REMARK  179  A    between atoms: _431  and  _432
REMARK  180  A    between atoms: _435  and  _437
REMARK  181  A    between atoms: _437  and  _438
REMARK  182  A    between atoms: _437  and  _440
REMARK  183  A    between atoms: _443  and  _445
REMARK  184  A    between atoms: _445  and  _446
REMARK  185  A    between atoms: _445  and  _448
REMARK  186  A    between atoms: _448  and  _449
REMARK  187  A    between atoms: _452  and  _454
REMARK  188  A    between atoms: _454  and  _455
REMARK  189  A    between atoms: _454  and  _457
REMARK  190  A    between atoms: _457  and  _458
REMARK  191  A    between atoms: _462  and  _463
REMARK  192  A    between atoms: _468  and  _470
REMARK  193  A    between atoms: _470  and  _471
REMARK  194  A    between atoms: _470  and  _473
REMARK  195  A    between atoms: _473  and  _474
REMARK  196  A    between atoms: _477  and  _479
REMARK  197  A    between atoms: _479  and  _480
REMARK  198  A    between atoms: _479  and  _482
REMARK  199  A    between atoms: _482  and  _483
REMARK  200  A    between atoms: _488  and  _490
REMARK  201  A    between atoms: _490  and  _491
REMARK  202  A    between atoms: _490  and  _493
REMARK  203  A    between atoms: _496  and  _498
REMARK  204  A    between atoms: _498  and  _499
REMARK  205  A    between atoms: _498  and  _501
REMARK  206  A    between atoms: _501  and  _502
REMARK  207  A    between atoms: _505  and  _507
REMARK  208  A    between atoms: _507  and  _508
REMARK  209  A    between atoms: _510  and  _512
REMARK  210  A    between atoms: _512  and  _513
REMARK  211  A    between atoms: _512  and  _515
REMARK  212  A    between atoms: _515  and  _516
REMARK  213  A    between atoms: _516  and  _517
REMARK  214  A    between atoms: _517  and  _518
REMARK  215  A    between atoms: _527  and  _529
REMARK  216  A    between atoms: _529  and  _530
REMARK  217  A    between atoms: _529  and  _532
REMARK  218  A    between atoms: _532  and  _533
REMARK                            x       y       z     vdW  Elec       q    Type
REMARK                         _______ _______ _______ _____ _____    ______ ____
ROOT
ATOM      1  C   ALA A   6     -12.583  18.516   6.231  0.00  0.00    +0.241 C 
ATOM      2  N   ASP A   7     -12.998  17.457   6.906  0.00  0.00    -0.297 N 
ATOM      3  H   ASP A   7     -12.830  16.497   6.543  0.00  0.00    +0.150 HD
ATOM      4  O   ALA A   6     -12.874  19.677   6.593  0.00  0.00    -0.273 OA
ENDROOT
BRANCH   1   5
ATOM      5  CA  ALA A   6     -11.805  18.238   4.978  0.00  0.00    +0.149 C 
ATOM      6  CB  ALA A   6     -10.371  18.866   5.092  0.00  0.00    +0.031 C 
BRANCH   5   8
ATOM      7  C   GLY A   5     -13.146  18.064   2.930  0.00  0.00    +0.243 C 
ATOM      8  N   ALA A   6     -12.505  18.786   3.848  0.00  0.00    -0.297 N 
ATOM      9  H   ALA A   6     -12.511  19.820   3.739  0.00  0.00    +0.150 HD
ATOM     10  O   GLY A   5     -13.137  16.844   2.900  0.00  0.00    -0.273 OA
BRANCH   7  11
ATOM     11  CA  GLY A   5     -13.773  18.848   1.803  0.00  0.00    +0.176 C 
BRANCH  11  14
ATOM     12  C   THR A   4     -14.509  21.049   2.557  0.00  0.00    +0.243 C 
ATOM     13  O   THR A   4     -15.443  20.619   3.173  0.00  0.00    -0.273 OA
ATOM     14  N   GLY A   5     -13.695  20.287   1.837  0.00  0.00    -0.295 N 
ATOM     15  H   GLY A   5     -12.961  20.753   1.266  0.00  0.00    +0.150 HD
BRANCH  12  16
ATOM     16  CA  THR A   4     -14.265  22.524   2.549  0.00  0.00    +0.176 C 
BRANCH  16  19
ATOM     17  C   ASP A   3     -11.844  22.490   2.791  0.00  0.00    +0.241 C 
ATOM     18  O   ASP A   3     -11.937  21.804   3.798  0.00  0.00    -0.273 OA
ATOM     19  N   THR A   4     -12.916  22.879   2.083  0.00  0.00    -0.295 N 
ATOM     20  H   THR A   4     -12.793  23.429   1.209  0.00  0.00    +0.150 HD
BRANCH  17  21
ATOM     21  CA  ASP A   3     -10.458  22.958   2.251  0.00  0.00    +0.160 C 
BRANCH  21  23
ATOM     22  C   LEU A   2      -9.695  25.229   2.079  0.00  0.00    +0.241 C 
ATOM     23  N   ASP A   3      -9.983  24.174   2.815  0.00  0.00    -0.297 N 
ATOM     24  H   ASP A   3      -9.858  24.233   3.846  0.00  0.00    +0.150 HD
ATOM     25  O   LEU A   2      -9.980  25.336   0.873  0.00  0.00    -0.273 OA
BRANCH  22  26
ATOM     26  CA  LEU A   2      -8.933  26.344   2.831  0.00  0.00    +0.149 C 
BRANCH  26  29
ATOM     27  C   LEU A   1      -6.724  25.375   2.561  0.00  0.00    +0.238 C 
ATOM     28  O   LEU A   1      -6.931  24.565   3.487  0.00  0.00    -0.274 OA
ATOM     29  N   LEU A   2      -7.616  26.310   2.219  0.00  0.00    -0.297 N 
ATOM     30  H   LEU A   2      -7.364  27.023   1.505  0.00  0.00    +0.150 HD
BRANCH  27  31
ATOM     31  CA  LEU A   1      -5.402  25.360   1.786  0.00  0.00    +0.145 C 
BRANCH  31  32
ATOM     32  N   LEU A   1      -4.271  25.360   2.694  0.00  0.00    -0.238 NA
ATOM     33  H   LEU A   1      -3.904  24.436   3.000  0.00  0.00    +0.142 HD
ENDBRANCH  31  32
BRANCH  31  34
ATOM     34  CB  LEU A   1      -5.264  24.063   0.990  0.00  0.00    +0.026 C 
BRANCH  34  35
ATOM     35  CG  LEU A   1      -6.052  23.725  -0.254  0.00  0.00    +0.002 C 
ATOM     36  CD2 LEU A   1      -5.725  22.350  -0.834  0.00  0.00    +0.000 C 
ATOM     37  CD1 LEU A   1      -5.743  24.702  -1.294  0.00  0.00    +0.000 C 
ENDBRANCH  34  35
ENDBRANCH  31  34
ENDBRANCH  27  31
ENDBRANCH  26  29
BRANCH  26  38
ATOM     38  CB  LEU A   2      -9.561  27.689   2.662  0.00  0.00    +0.029 C 
BRANCH  38  39
ATOM     39  CG  LEU A   2      -8.894  28.875   3.348  0.00  0.00    +0.002 C 
ATOM     40  CD2 LEU A   2      -8.897  28.730   4.804  0.00  0.00    +0.000 C 
ATOM     41  CD1 LEU A   2      -9.626  30.088   2.935  0.00  0.00    +0.000 C 
ENDBRANCH  38  39
ENDBRANCH  26  38
ENDBRANCH  22  26
ENDBRANCH  21  23
BRANCH  21  42
ATOM     42  CB  ASP A   3      -9.409  21.927   2.487  0.00  0.00    +0.143 C 
BRANCH  42  43
ATOM     43  CG  ASP A   3      -9.746  20.640   1.808  0.00  0.00    +0.367 C 
ATOM     44  OD2 ASP A   3      -8.958  19.700   1.962  0.00  0.00    -0.246 OA
ATOM     45  OD1 ASP A   3     -10.754  20.503   1.084  0.00  0.00    -0.246 OA
ENDBRANCH  42  43
ENDBRANCH  21  42
ENDBRANCH  17  21
ENDBRANCH  16  19
BRANCH  16  46
ATOM     46  CB  THR A   4     -15.312  23.191   1.725  0.00  0.00    +0.137 C 
ATOM     47  CG2 THR A   4     -15.194  24.715   1.814  0.00  0.00    +0.034 C 
BRANCH  46  48
ATOM     48  OG1 THR A   4     -15.127  22.926   0.320  0.00  0.00    -0.382 OA
ATOM     49  HG1 THR A   4     -15.176  21.950   0.160  0.00  0.00    +0.210 HD
ENDBRANCH  46  48
ENDBRANCH  16  46
ENDBRANCH  12  16
ENDBRANCH  11  14
ENDBRANCH   7  11
ENDBRANCH   5   8
ENDBRANCH   1   5
BRANCH   2  50
ATOM     50  CA  ASP A   7     -13.702  17.665   8.180  0.00  0.00    +0.160 C 
BRANCH  50  51
ATOM     51  C   ASP A   7     -12.728  18.278   9.171  0.00  0.00    +0.241 C 
ATOM     52  O   ASP A   7     -13.136  19.040  10.018  0.00  0.00    -0.273 OA
ATOM     53  N   ASP A   8     -11.469  17.849   9.062  0.00  0.00    -0.297 N 
ATOM     54  H   ASP A   8     -11.260  17.200   8.277  0.00  0.00    +0.150 HD
BRANCH  53  55
ATOM     55  CA  ASP A   8     -10.347  18.206   9.946  0.00  0.00    +0.160 C 
BRANCH  55  56
ATOM     56  C   ASP A   8      -9.212  19.056   9.306  0.00  0.00    +0.241 C 
ATOM     57  N   THR A   9      -8.422  19.628  10.208  0.00  0.00    -0.295 N 
ATOM     58  H   THR A   9      -8.660  19.513  11.214  0.00  0.00    +0.150 HD
ATOM     59  O   ASP A   8      -9.115  19.234   8.083  0.00  0.00    -0.273 OA
BRANCH  57  60
ATOM     60  CA  THR A   9      -7.251  20.401   9.867  0.00  0.00    +0.176 C 
BRANCH  60  61
ATOM     61  C   THR A   9      -6.018  19.495  10.022  0.00  0.00    +0.243 C 
ATOM     62  O   THR A   9      -5.767  18.928  11.104  0.00  0.00    -0.273 OA
ATOM     63  N   VAL A  10      -5.304  19.326   8.940  0.00  0.00    -0.297 N 
ATOM     64  H   VAL A  10      -5.576  19.827   8.070  0.00  0.00    +0.150 HD
BRANCH  63  65
ATOM     65  CA  VAL A  10      -4.164  18.475   8.922  0.00  0.00    +0.149 C 
BRANCH  65  66
ATOM     66  C   VAL A  10      -2.932  19.225   8.377  0.00  0.00    +0.241 C 
ATOM     67  N   LEU A  11      -1.874  19.211   9.172  0.00  0.00    -0.298 N 
ATOM     68  H   LEU A  11      -1.930  18.685  10.068  0.00  0.00    +0.150 HD
ATOM     69  O   VAL A  10      -2.944  19.747   7.277  0.00  0.00    -0.273 OA
BRANCH  67  70
ATOM     70  CA  LEU A  11      -0.639  19.900   8.844  0.00  0.00    +0.137 C 
BRANCH  70  71
ATOM     71  C   LEU A  11       0.535  18.954   8.783  0.00  0.00    +0.227 C 
ATOM     72  O   LEU A  11       0.608  18.004   9.561  0.00  0.00    -0.286 OA
ENDBRANCH  70  71
BRANCH  70  73
ATOM     73  CB  LEU A  11      -0.330  20.931   9.943  0.00  0.00    +0.028 C 
BRANCH  73  74
ATOM     74  CG  LEU A  11      -1.363  22.031  10.242  0.00  0.00    +0.002 C 
ATOM     75  CD2 LEU A  11      -0.766  23.087  11.197  0.00  0.00    +0.000 C 
ATOM     76  CD1 LEU A  11      -1.838  22.718   8.963  0.00  0.00    +0.000 C 
ENDBRANCH  73  74
ENDBRANCH  70  73
ENDBRANCH  67  70
ENDBRANCH  65  66
BRANCH  65  77
ATOM     77  CB  VAL A  10      -4.334  17.238   8.005  0.00  0.00    +0.027 C 
ATOM     78  CG2 VAL A  10      -3.259  16.188   8.365  0.00  0.00    +0.002 C 
ATOM     79  CG1 VAL A  10      -5.732  16.688   8.106  0.00  0.00    +0.002 C 
ENDBRANCH  65  77
ENDBRANCH  63  65
ENDBRANCH  60  61
BRANCH  60  80
ATOM     80  CB  THR A   9      -7.234  21.551  10.780  0.00  0.00    +0.137 C 
ATOM     81  CG2 THR A   9      -5.909  22.360  10.609  0.00  0.00    +0.034 C 
BRANCH  80  82
ATOM     82  OG1 THR A   9      -8.280  22.421  10.365  0.00  0.00    -0.382 OA
ATOM     83  HG1 THR A   9      -9.145  21.943  10.417  0.00  0.00    +0.210 HD
ENDBRANCH  80  82
ENDBRANCH  60  80
ENDBRANCH  57  60
ENDBRANCH  55  56
BRANCH  55  84
ATOM     84  CB  ASP A   8      -9.700  16.912  10.478  0.00  0.00    +0.143 C 
BRANCH  84  85
ATOM     85  CG  ASP A   8     -10.720  15.982  11.155  0.00  0.00    +0.367 C 
ATOM     86  OD2 ASP A   8     -11.490  16.443  12.006  0.00  0.00    -0.246 OA
ATOM     87  OD1 ASP A   8     -10.847  14.794  10.852  0.00  0.00    -0.246 OA
ENDBRANCH  84  85
ENDBRANCH  55  84
ENDBRANCH  53  55
ENDBRANCH  50  51
BRANCH  50  88
ATOM     88  CB  ASP A   7     -14.164  16.304   8.756  0.00  0.00    +0.143 C 
BRANCH  88  89
ATOM     89  CG  ASP A   7     -15.135  15.576   7.825  0.00  0.00    +0.367 C 
ATOM     90  OD2 ASP A   7     -15.066  14.371   7.836  0.00  0.00    -0.246 OA
ATOM     91  OD1 ASP A   7     -15.968  16.142   7.049  0.00  0.00    -0.246 OA
ENDBRANCH  88  89
ENDBRANCH  50  88
ENDBRANCH   2  50
TORSDOF 39
REMARK  Name = ../refined-set-2016/1izi/1izi_pocket.pdb
REMARK  218 active torsions:
REMARK  status: ('A' for Active; 'I' for Inactive)
REMARK    1  A    between atoms: _1  and  _3
REMARK    2  A    between atoms: _3  and  _4
REMARK    3  A    between atoms: _3  and  _6
REMARK    4  A    between atoms: _6  and  _7
REMARK    5  A    between atoms: _7  and  _8
REMARK    6  A    between atoms: _8  and  _9
REMARK    7  A    between atoms: _18  and  _20
REMARK    8  A    between atoms: _20  and  _21
REMARK    9  A    between atoms: _20  and  _23
REMARK   10  A    between atoms: _23  and  _24
REMARK   11  A    between atoms: _27  and  _29
REMARK   12  A    between atoms: _29  and  _30
REMARK   13  A    between atoms: _29  and  _32
REMARK   14  A    between atoms: _32  and  _33
REMARK   15  A    between atoms: _36  and  _38
REMARK   16  A    between atoms: _38  and  _39
REMARK   17  A    between atoms: _38  and  _41
REMARK   18  A    between atoms: _41  and  _42
REMARK   19  A    between atoms: _45  and  _47
REMARK   20  A    between atoms: _47  and  _48
REMARK   21  A    between atoms: _47  and  _50
REMARK   22  A    between atoms: _50  and  _51
REMARK   23  A    between atoms: _54  and  _56
REMARK   24  A    between atoms: _56  and  _57
REMARK   25  A    between atoms: _59  and  _61
REMARK   26  A    between atoms: _61  and  _62
REMARK   27  A    between atoms: _65  and  _67
REMARK   28  A    between atoms: _67  and  _68
REMARK   29  A    between atoms: _67  and  _70
REMARK   30  A    between atoms: _70  and  _71
REMARK   31  A    between atoms: _74  and  _76
REMARK   32  A    between atoms: _76  and  _77
REMARK   33  A    between atoms: _76  and  _79
REMARK   34  A    between atoms: _79  and  _80
REMARK   35  A    between atoms: _83  and  _85
REMARK   36  A    between atoms: _85  and  _86
REMARK   37  A    between atoms: _85  and  _88
REMARK   38  A    between atoms: _88  and  _89
REMARK   39  A    between atoms: _92  and  _94
REMARK   40  A    between atoms: _94  and  _95
REMARK   41  A    between atoms: _94  and  _97
REMARK   42  A    between atoms: _100  and  _102
REMARK   43  A    between atoms: _102  and  _103
REMARK   44  A    between atoms: _102  and  _105
REMARK   45  A    between atoms: _105  and  _106
REMARK   46  A    between atoms: _109  and  _111
REMARK   47  A    between atoms: _111  and  _112
REMARK   48  A    between atoms: _111  and  _114
REMARK   49  A    between atoms: _114  and  _115
REMARK   50  A    between atoms: _115  and  _116
REMARK   51  A    between atoms: _118  and  _120
REMARK   52  A    between atoms: _120  and  _121
REMARK   53  A    between atoms: _120  and  _123
REMARK   54  A    between atoms: _123  and  _124
REMARK   55  A    between atoms: _127  and  _129
REMARK   56  A    between atoms: _129  and  _130
REMARK   57  A    between atoms: _132  and  _134
REMARK   58  A    between atoms: _134  and  _135
REMARK   59  A    between atoms: _137  and  _139
REMARK   60  A    between atoms: _139  and  _140
REMARK   61  A    between atoms: _139  and  _142
REMARK   62  A    between atoms: _142  and  _143
REMARK   63  A    between atoms: _146  and  _148
REMARK   64  A    between atoms: _148  and  _149
REMARK   65  A    between atoms: _151  and  _153
REMARK   66  A    between atoms: _153  and  _154
REMARK   67  A    between atoms: _156  and  _158
REMARK   68  A    between atoms: _158  and  _159
REMARK   69  A    between atoms: _158  and  _161
REMARK   70  A    between atoms: _161  and  _162
REMARK   71  A    between atoms: _165  and  _167
REMARK   72  A    between atoms: _167  and  _168
REMARK   73  A    between atoms: _167  and  _170
REMARK   74  A    between atoms: _173  and  _175
REMARK   75  A    between atoms: _175  and  _176
REMARK   76  A    between atoms: _175  and  _178
REMARK   77  A    between atoms: _178  and  _179
REMARK   78  A    between atoms: _182  and  _184
REMARK   79  A    between atoms: _184  and  _185
REMARK   80  A    between atoms: _184  and  _187
REMARK   81  A    between atoms: _187  and  _188
REMARK   82  A    between atoms: _192  and  _193
REMARK   83  A    between atoms: _198  and  _200
REMARK   84  A    between atoms: _200  and  _201
REMARK   85  A    between atoms: _200  and  _203
REMARK   86  A    between atoms: _203  and  _204
REMARK   87  A    between atoms: _207  and  _209
REMARK   88  A    between atoms: _209  and  _210
REMARK   89  A    between atoms: _209  and  _212
REMARK   90  A    between atoms: _212  and  _213
REMARK   91  A    between atoms: _218  and  _220
REMARK   92  A    between atoms: _220  and  _221
REMARK   93  A    between atoms: _220  and  _223
REMARK   94  A    between atoms: _226  and  _228
REMARK   95  A    between atoms: _228  and  _229
REMARK   96  A    between atoms: _228  and  _231
REMARK   97  A    between atoms: _231  and  _232
REMARK   98  A    between atoms: _235  and  _237
REMARK   99  A    between atoms: _237  and  _238
REMARK  100  A    between atoms: _240  and  _242
REMARK  101  A    between atoms: _242  and  _243
REMARK  102  A    between atoms: _242  and  _245
REMARK  103  A    between atoms: _245  and  _246
REMARK  104  A    between atoms: _246  and  _247
REMARK  105  A    between atoms: _247  and  _248
REMARK  106  A    between atoms: _257  and  _259
REMARK  107  A    between atoms: _259  and  _260
REMARK  108  A    between atoms: _259  and  _262
REMARK  109  A    between atoms: _262  and  _263
REMARK  110  A    between atoms: _268  and  _270
REMARK  111  A    between atoms: _270  and  _271
REMARK  112  A    between atoms: _270  and  _273
REMARK  113  A    between atoms: _273  and  _274
REMARK  114  A    between atoms: _274  and  _275
REMARK  115  A    between atoms: _275  and  _276
REMARK  116  A    between atoms: _285  and  _287
REMARK  117  A    between atoms: _287  and  _288
REMARK  118  A    between atoms: _287  and  _290
REMARK  119  A    between atoms: _290  and  _291
REMARK  120  A    between atoms: _294  and  _296
REMARK  121  A    between atoms: _296  and  _297
REMARK  122  A    between atoms: _296  and  _299
REMARK  123  A    between atoms: _299  and  _300
REMARK  124  A    between atoms: _303  and  _305
REMARK  125  A    between atoms: _305  and  _306
REMARK  126  A    between atoms: _305  and  _308
REMARK  127  A    between atoms: _308  and  _309
REMARK  128  A    between atoms: _312  and  _314
REMARK  129  A    between atoms: _314  and  _315
REMARK  130  A    between atoms: _314  and  _317
REMARK  131  A    between atoms: _317  and  _318
REMARK  132  A    between atoms: _321  and  _323
REMARK  133  A    between atoms: _323  and  _324
REMARK  134  A    between atoms: _326  and  _328
REMARK  135  A    between atoms: _328  and  _329
REMARK  136  A    between atoms: _332  and  _334
REMARK  137  A    between atoms: _334  and  _335
REMARK  138  A    between atoms: _334  and  _337
REMARK  139  A    between atoms: _337  and  _338
REMARK  140  A    between atoms: _341  and  _343
REMARK  141  A    between atoms: _343  and  _344
REMARK  142  A    between atoms: _343  and  _346
REMARK  143  A    between atoms: _346  and  _347
REMARK  144  A    between atoms: _350  and  _352
REMARK  145  A    between atoms: _352  and  _353
REMARK  146  A    between atoms: _352  and  _355
REMARK  147  A    between atoms: _355  and  _356
REMARK  148  A    between atoms: _359  and  _361
REMARK  149  A    between atoms: _361  and  _362
REMARK  150  A    between atoms: _361  and  _364
REMARK  151  A    between atoms: _367  and  _369
REMARK  152  A    between atoms: _369  and  _370
REMARK  153  A    between atoms: _369  and  _372
REMARK  154  A    between atoms: _372  and  _373
REMARK  155  A    between atoms: _373  and  _374
REMARK  156  A    between atoms: _376  and  _378
REMARK  157  A    between atoms: _378  and  _379
REMARK  158  A    between atoms: _378  and  _381
REMARK  159  A    between atoms: _381  and  _382
REMARK  160  A    between atoms: _385  and  _387
REMARK  161  A    between atoms: _387  and  _388
REMARK  162  A    between atoms: _390  and  _392
REMARK  163  A    between atoms: _392  and  _393
REMARK  164  A    between atoms: _395  and  _397
REMARK  165  A    between atoms: _397  and  _398
REMARK  166  A    between atoms: _397  and  _400
REMARK  167  A    between atoms: _400  and  _401
REMARK  168  A    between atoms: _404  and  _406
REMARK  169  A    between atoms: _406  and  _407
REMARK  170  A    between atoms: _409  and  _411
REMARK  171  A    between atoms: _411  and  _412
REMARK  172  A    between atoms: _414  and  _416
REMARK  173  A    between atoms: _416  and  _417
REMARK  174  A    between atoms: _416  and  _419
REMARK  175  A    between atoms: _419  and  _420
REMARK  176  A    between atoms: _426  and  _428
REMARK  177  A    between atoms: _428  and  _429
REMARK  178  A    between atoms: _428  and  _431
REMARK  179  A    between atoms: _431  and  _432
REMARK  180  A    between atoms: _435  and  _437
REMARK  181  A    between atoms: _437  and  _438
REMARK  182  A    between atoms: _437  and  _440
REMARK  183  A    between atoms: _443  and  _445
REMARK  184  A    between atoms: _445  and  _446
REMARK  185  A    between atoms: _445  and  _448
REMARK  186  A    between atoms: _448  and  _449
REMARK  187  A    between atoms: _452  and  _454
REMARK  188  A    between atoms: _454  and  _455
REMARK  189  A    between atoms: _454  and  _457
REMARK  190  A    between atoms: _457  and  _458
REMARK  191  A    between atoms: _462  and  _463
REMARK  192  A    between atoms: _468  and  _470
REMARK  193  A    between atoms: _470  and  _471
REMARK  194  A    between atoms: _470  and  _473
REMARK  195  A    between atoms: _473  and  _474
REMARK  196  A    between atoms: _477  and  _479
REMARK  197  A    between atoms: _479  and  _480
REMARK  198  A    between atoms: _479  and  _482
REMARK  199  A    between atoms: _482  and  _483
REMARK  200  A    between atoms: _488  and  _490
REMARK  201  A    between atoms: _490  and  _491
REMARK  202  A    between atoms: _490  and  _493
REMARK  203  A    between atoms: _496  and  _498
REMARK  204  A    between atoms: _498  and  _499
REMARK  205  A    between atoms: _498  and  _501
REMARK  206  A    between atoms: _501  and  _502
REMARK  207  A    between atoms: _505  and  _507
REMARK  208  A    between atoms: _507  and  _508
REMARK  209  A    between atoms: _510  and  _512
REMARK  210  A    between atoms: _512  and  _513
REMARK  211  A    between atoms: _512  and  _515
REMARK  212  A    between atoms: _515  and  _516
REMARK  213  A    between atoms: _516  and  _517
REMARK  214  A    between atoms: _517  and  _518
REMARK  215  A    between atoms: _527  and  _529
REMARK  216  A    between atoms: _529  and  _530
REMARK  217  A    between atoms: _529  and  _532
REMARK  218  A    between atoms: _532  and  _533
REMARK                            x       y       z     vdW  Elec       q    Type
REMARK                         _______ _______ _______ _____ _____    ______ ____
ROOT
ATOM      1  C   GLY A   3      -8.798  10.019   4.290  0.00  0.00    +0.243 C 
ATOM      2  O   GLY A   3      -9.397  11.048   4.594  0.00  0.00    -0.273 OA
ATOM      3  N   GLY A   4      -8.430   9.763   3.051  0.00  0.00    -0.295 N 
ATOM      4  H   GLY A   4      -7.771   8.980   2.866  0.00  0.00    +0.150 HD
ENDROOT
BRANCH   1   5
ATOM      5  CA  GLY A   3      -8.384   8.950   5.280  0.00  0.00    +0.176 C 
BRANCH   5   8
ATOM      6  C   ILE A   2      -7.290   9.237   7.411  0.00  0.00    +0.241 C 
ATOM      7  O   ILE A   2      -6.190   8.831   6.982  0.00  0.00    -0.273 OA
ATOM      8  N   GLY A   3      -8.378   9.325   6.675  0.00  0.00    -0.295 N 
ATOM      9  H   GLY A   3      -9.256   9.674   7.109  0.00  0.00    +0.150 HD
BRANCH   6  10
ATOM     10  CA  ILE A   2      -7.483   9.689   8.841  0.00  0.00    +0.148 C 
BRANCH  10  13
ATOM     11  C   MET A   1      -6.913   8.501  10.896  0.00  0.00    +0.238 C 
ATOM     12  O   MET A   1      -8.011   8.704  11.407  0.00  0.00    -0.274 OA
ATOM     13  N   ILE A   2      -6.547   8.976   9.709  0.00  0.00    -0.297 N 
ATOM     14  H   ILE A   2      -5.567   8.836   9.389  0.00  0.00    +0.150 HD
BRANCH  11  15
ATOM     15  CA  MET A   1      -5.866   7.702  11.632  0.00  0.00    +0.146 C 
BRANCH  15  16
ATOM     16  N   MET A   1      -5.996   8.013  13.052  0.00  0.00    -0.238 NA
ATOM     17  H   MET A   1      -6.916   7.850  13.509  0.00  0.00    +0.142 HD
ENDBRANCH  15  16
BRANCH  15  18
ATOM     18  CB  MET A   1      -6.129   6.225  11.341  0.00  0.00    +0.038 C 
BRANCH  18  19
ATOM     19  CG  MET A   1      -5.544   5.273  12.377  0.00  0.00    +0.060 C 
BRANCH  19  20
ATOM     20  SD  MET A   1      -4.157   4.257  11.749  0.00  0.00    -0.139 S 
ATOM     21  CE  MET A   1      -3.552   5.135  10.279  0.00  0.00    +0.069 C 
ENDBRANCH  19  20
ENDBRANCH  18  19
ENDBRANCH  15  18
ENDBRANCH  11  15
ENDBRANCH  10  13
BRANCH  10  22
ATOM     22  CB  ILE A   2      -7.280  11.219   8.904  0.00  0.00    +0.027 C 
ATOM     23  CG2 ILE A   2      -7.852  11.751  10.150  0.00  0.00    +0.002 C 
BRANCH  22  24
ATOM     24  CG1 ILE A   2      -5.796  11.560   8.784  0.00  0.00    +0.002 C 
ATOM     25  CD1 ILE A   2      -5.530  12.446   7.682  0.00  0.00    +0.000 C 
ENDBRANCH  22  24
ENDBRANCH  10  22
ENDBRANCH   6  10
ENDBRANCH   5   8
ENDBRANCH   1   5
BRANCH   3  26
ATOM     26  CA  GLY A   4      -8.924  10.548   1.947  0.00  0.00    +0.176 C 
BRANCH  26  27
ATOM     27  C   GLY A   4      -8.798   9.709   0.725  0.00  0.00    +0.243 C 
ATOM     28  O   GLY A   4      -8.853   8.480   0.750  0.00  0.00    -0.273 OA
ATOM     29  N   ILE A   5      -8.616  10.385  -0.377  0.00  0.00    -0.297 N 
ATOM     30  H   ILE A   5      -8.631  11.425  -0.360  0.00  0.00    +0.150 HD
BRANCH  29  31
ATOM     31  CA  ILE A   5      -8.398   9.699  -1.593  0.00  0.00    +0.149 C 
BRANCH  31  32
ATOM     32  C   ILE A   5      -7.022   9.102  -1.361  0.00  0.00    +0.241 C 
ATOM     33  O   ILE A   5      -6.098   9.750  -0.798  0.00  0.00    -0.273 OA
ATOM     34  N   GLY A   6      -6.877   7.852  -1.729  0.00  0.00    -0.295 N 
ATOM     35  H   GLY A   6      -7.683   7.320  -2.116  0.00  0.00    +0.150 HD
BRANCH  34  36
ATOM     36  CA  GLY A   6      -5.587   7.224  -1.591  0.00  0.00    +0.176 C 
BRANCH  36  37
ATOM     37  C   GLY A   6      -5.464   6.353  -0.355  0.00  0.00    +0.243 C 
ATOM     38  N   GLY A   7      -6.192   6.625   0.688  0.00  0.00    -0.296 N 
ATOM     39  H   GLY A   7      -6.859   7.423   0.701  0.00  0.00    +0.150 HD
ATOM     40  O   GLY A   6      -4.702   5.426  -0.325  0.00  0.00    -0.273 OA
BRANCH  38  41
ATOM     41  CA  GLY A   7      -6.022   5.765   1.811  0.00  0.00    +0.163 C 
BRANCH  41  42
ATOM     42  C   GLY A   7      -5.891   6.518   3.095  0.00  0.00    +0.229 C 
ATOM     43  O   GLY A   7      -6.404   7.625   3.226  0.00  0.00    -0.286 OA
ENDBRANCH  41  42
ENDBRANCH  38  41
ENDBRANCH  36  37
ENDBRANCH  34  36
ENDBRANCH  31  32
BRANCH  31  44
ATOM     44  CB  ILE A   5      -8.433  10.714  -2.763  0.00  0.00    +0.027 C 
ATOM     45  CG2 ILE A   5      -7.097  10.838  -3.472  0.00  0.00    +0.002 C 
BRANCH  44  46
ATOM     46  CG1 ILE A   5      -9.529  10.363  -3.780  0.00  0.00    +0.002 C 
ATOM     47  CD1 ILE A   5     -10.662  11.418  -3.771  0.00  0.00    +0.000 C 
ENDBRANCH  44  46
ENDBRANCH  31  44
ENDBRANCH  29  31
ENDBRANCH  26  27
ENDBRANCH   3  26
TORSDOF 21
REMARK  Name = ../refined-set-2016/1izi/1izi_pocket.pdb
REMARK  218 active torsions:
REMARK  status: ('A' for Active; 'I' for Inactive)
REMARK    1  A    between atoms: _1  and  _3
REMARK    2  A    between atoms: _3  and  _4
REMARK    3  A    between atoms: _3  and  _6
REMARK    4  A    between atoms: _6  and  _7
REMARK    5  A    between atoms: _7  and  _8
REMARK    6  A    between atoms: _8  and  _9
REMARK    7  A    between atoms: _18  and  _20
REMARK    8  A    between atoms: _20  and  _21
REMARK    9  A    between atoms: _20  and  _23
REMARK   10  A    between atoms: _23  and  _24
REMARK   11  A    between atoms: _27  and  _29
REMARK   12  A    between atoms: _29  and  _30
REMARK   13  A    between atoms: _29  and  _32
REMARK   14  A    between atoms: _32  and  _33
REMARK   15  A    between atoms: _36  and  _38
REMARK   16  A    between atoms: _38  and  _39
REMARK   17  A    between atoms: _38  and  _41
REMARK   18  A    between atoms: _41  and  _42
REMARK   19  A    between atoms: _45  and  _47
REMARK   20  A    between atoms: _47  and  _48
REMARK   21  A    between atoms: _47  and  _50
REMARK   22  A    between atoms: _50  and  _51
REMARK   23  A    between atoms: _54  and  _56
REMARK   24  A    between atoms: _56  and  _57
REMARK   25  A    between atoms: _59  and  _61
REMARK   26  A    between atoms: _61  and  _62
REMARK   27  A    between atoms: _65  and  _67
REMARK   28  A    between atoms: _67  and  _68
REMARK   29  A    between atoms: _67  and  _70
REMARK   30  A    between atoms: _70  and  _71
REMARK   31  A    between atoms: _74  and  _76
REMARK   32  A    between atoms: _76  and  _77
REMARK   33  A    between atoms: _76  and  _79
REMARK   34  A    between atoms: _79  and  _80
REMARK   35  A    between atoms: _83  and  _85
REMARK   36  A    between atoms: _85  and  _86
REMARK   37  A    between atoms: _85  and  _88
REMARK   38  A    between atoms: _88  and  _89
REMARK   39  A    between atoms: _92  and  _94
REMARK   40  A    between atoms: _94  and  _95
REMARK   41  A    between atoms: _94  and  _97
REMARK   42  A    between atoms: _100  and  _102
REMARK   43  A    between atoms: _102  and  _103
REMARK   44  A    between atoms: _102  and  _105
REMARK   45  A    between atoms: _105  and  _106
REMARK   46  A    between atoms: _109  and  _111
REMARK   47  A    between atoms: _111  and  _112
REMARK   48  A    between atoms: _111  and  _114
REMARK   49  A    between atoms: _114  and  _115
REMARK   50  A    between atoms: _115  and  _116
REMARK   51  A    between atoms: _118  and  _120
REMARK   52  A    between atoms: _120  and  _121
REMARK   53  A    between atoms: _120  and  _123
REMARK   54  A    between atoms: _123  and  _124
REMARK   55  A    between atoms: _127  and  _129
REMARK   56  A    between atoms: _129  and  _130
REMARK   57  A    between atoms: _132  and  _134
REMARK   58  A    between atoms: _134  and  _135
REMARK   59  A    between atoms: _137  and  _139
REMARK   60  A    between atoms: _139  and  _140
REMARK   61  A    between atoms: _139  and  _142
REMARK   62  A    between atoms: _142  and  _143
REMARK   63  A    between atoms: _146  and  _148
REMARK   64  A    between atoms: _148  and  _149
REMARK   65  A    between atoms: _151  and  _153
REMARK   66  A    between atoms: _153  and  _154
REMARK   67  A    between atoms: _156  and  _158
REMARK   68  A    between atoms: _158  and  _159
REMARK   69  A    between atoms: _158  and  _161
REMARK   70  A    between atoms: _161  and  _162
REMARK   71  A    between atoms: _165  and  _167
REMARK   72  A    between atoms: _167  and  _168
REMARK   73  A    between atoms: _167  and  _170
REMARK   74  A    between atoms: _173  and  _175
REMARK   75  A    between atoms: _175  and  _176
REMARK   76  A    between atoms: _175  and  _178
REMARK   77  A    between atoms: _178  and  _179
REMARK   78  A    between atoms: _182  and  _184
REMARK   79  A    between atoms: _184  and  _185
REMARK   80  A    between atoms: _184  and  _187
REMARK   81  A    between atoms: _187  and  _188
REMARK   82  A    between atoms: _192  and  _193
REMARK   83  A    between atoms: _198  and  _200
REMARK   84  A    between atoms: _200  and  _201
REMARK   85  A    between atoms: _200  and  _203
REMARK   86  A    between atoms: _203  and  _204
REMARK   87  A    between atoms: _207  and  _209
REMARK   88  A    between atoms: _209  and  _210
REMARK   89  A    between atoms: _209  and  _212
REMARK   90  A    between atoms: _212  and  _213
REMARK   91  A    between atoms: _218  and  _220
REMARK   92  A    between atoms: _220  and  _221
REMARK   93  A    between atoms: _220  and  _223
REMARK   94  A    between atoms: _226  and  _228
REMARK   95  A    between atoms: _228  and  _229
REMARK   96  A    between atoms: _228  and  _231
REMARK   97  A    between atoms: _231  and  _232
REMARK   98  A    between atoms: _235  and  _237
REMARK   99  A    between atoms: _237  and  _238
REMARK  100  A    between atoms: _240  and  _242
REMARK  101  A    between atoms: _242  and  _243
REMARK  102  A    between atoms: _242  and  _245
REMARK  103  A    between atoms: _245  and  _246
REMARK  104  A    between atoms: _246  and  _247
REMARK  105  A    between atoms: _247  and  _248
REMARK  106  A    between atoms: _257  and  _259
REMARK  107  A    between atoms: _259  and  _260
REMARK  108  A    between atoms: _259  and  _262
REMARK  109  A    between atoms: _262  and  _263
REMARK  110  A    between atoms: _268  and  _270
REMARK  111  A    between atoms: _270  and  _271
REMARK  112  A    between atoms: _270  and  _273
REMARK  113  A    between atoms: _273  and  _274
REMARK  114  A    between atoms: _274  and  _275
REMARK  115  A    between atoms: _275  and  _276
REMARK  116  A    between atoms: _285  and  _287
REMARK  117  A    between atoms: _287  and  _288
REMARK  118  A    between atoms: _287  and  _290
REMARK  119  A    between atoms: _290  and  _291
REMARK  120  A    between atoms: _294  and  _296
REMARK  121  A    between atoms: _296  and  _297
REMARK  122  A    between atoms: _296  and  _299
REMARK  123  A    between atoms: _299  and  _300
REMARK  124  A    between atoms: _303  and  _305
REMARK  125  A    between atoms: _305  and  _306
REMARK  126  A    between atoms: _305  and  _308
REMARK  127  A    between atoms: _308  and  _309
REMARK  128  A    between atoms: _312  and  _314
REMARK  129  A    between atoms: _314  and  _315
REMARK  130  A    between atoms: _314  and  _317
REMARK  131  A    between atoms: _317  and  _318
REMARK  132  A    between atoms: _321  and  _323
REMARK  133  A    between atoms: _323  and  _324
REMARK  134  A    between atoms: _326  and  _328
REMARK  135  A    between atoms: _328  and  _329
REMARK  136  A    between atoms: _332  and  _334
REMARK  137  A    between atoms: _334  and  _335
REMARK  138  A    between atoms: _334  and  _337
REMARK  139  A    between atoms: _337  and  _338
REMARK  140  A    between atoms: _341  and  _343
REMARK  141  A    between atoms: _343  and  _344
REMARK  142  A    between atoms: _343  and  _346
REMARK  143  A    between atoms: _346  and  _347
REMARK  144  A    between atoms: _350  and  _352
REMARK  145  A    between atoms: _352  and  _353
REMARK  146  A    between atoms: _352  and  _355
REMARK  147  A    between atoms: _355  and  _356
REMARK  148  A    between atoms: _359  and  _361
REMARK  149  A    between atoms: _361  and  _362
REMARK  150  A    between atoms: _361  and  _364
REMARK  151  A    between atoms: _367  and  _369
REMARK  152  A    between atoms: _369  and  _370
REMARK  153  A    between atoms: _369  and  _372
REMARK  154  A    between atoms: _372  and  _373
REMARK  155  A    between atoms: _373  and  _374
REMARK  156  A    between atoms: _376  and  _378
REMARK  157  A    between atoms: _378  and  _379
REMARK  158  A    between atoms: _378  and  _381
REMARK  159  A    between atoms: _381  and  _382
REMARK  160  A    between atoms: _385  and  _387
REMARK  161  A    between atoms: _387  and  _388
REMARK  162  A    between atoms: _390  and  _392
REMARK  163  A    between atoms: _392  and  _393
REMARK  164  A    between atoms: _395  and  _397
REMARK  165  A    between atoms: _397  and  _398
REMARK  166  A    between atoms: _397  and  _400
REMARK  167  A    between atoms: _400  and  _401
REMARK  168  A    between atoms: _404  and  _406
REMARK  169  A    between atoms: _406  and  _407
REMARK  170  A    between atoms: _409  and  _411
REMARK  171  A    between atoms: _411  and  _412
REMARK  172  A    between atoms: _414  and  _416
REMARK  173  A    between atoms: _416  and  _417
REMARK  174  A    between atoms: _416  and  _419
REMARK  175  A    between atoms: _419  and  _420
REMARK  176  A    between atoms: _426  and  _428
REMARK  177  A    between atoms: _428  and  _429
REMARK  178  A    between atoms: _428  and  _431
REMARK  179  A    between atoms: _431  and  _432
REMARK  180  A    between atoms: _435  and  _437
REMARK  181  A    between atoms: _437  and  _438
REMARK  182  A    between atoms: _437  and  _440
REMARK  183  A    between atoms: _443  and  _445
REMARK  184  A    between atoms: _445  and  _446
REMARK  185  A    between atoms: _445  and  _448
REMARK  186  A    between atoms: _448  and  _449
REMARK  187  A    between atoms: _452  and  _454
REMARK  188  A    between atoms: _454  and  _455
REMARK  189  A    between atoms: _454  and  _457
REMARK  190  A    between atoms: _457  and  _458
REMARK  191  A    between atoms: _462  and  _463
REMARK  192  A    between atoms: _468  and  _470
REMARK  193  A    between atoms: _470  and  _471
REMARK  194  A    between atoms: _470  and  _473
REMARK  195  A    between atoms: _473  and  _474
REMARK  196  A    between atoms: _477  and  _479
REMARK  197  A    between atoms: _479  and  _480
REMARK  198  A    between atoms: _479  and  _482
REMARK  199  A    between atoms: _482  and  _483
REMARK  200  A    between atoms: _488  and  _490
REMARK  201  A    between atoms: _490  and  _491
REMARK  202  A    between atoms: _490  and  _493
REMARK  203  A    between atoms: _496  and  _498
REMARK  204  A    between atoms: _498  and  _499
REMARK  205  A    between atoms: _498  and  _501
REMARK  206  A    between atoms: _501  and  _502
REMARK  207  A    between atoms: _505  and  _507
REMARK  208  A    between atoms: _507  and  _508
REMARK  209  A    between atoms: _510  and  _512
REMARK  210  A    between atoms: _512  and  _513
REMARK  211  A    between atoms: _512  and  _515
REMARK  212  A    between atoms: _515  and  _516
REMARK  213  A    between atoms: _516  and  _517
REMARK  214  A    between atoms: _517  and  _518
REMARK  215  A    between atoms: _527  and  _529
REMARK  216  A    between atoms: _529  and  _530
REMARK  217  A    between atoms: _529  and  _532
REMARK  218  A    between atoms: _532  and  _533
REMARK                            x       y       z     vdW  Elec       q    Type
REMARK                         _______ _______ _______ _____ _____    ______ ____
ROOT
ATOM      1  CA  ILE A   1      -2.370   8.117   7.380  0.00  0.00    +0.133 C 
ENDROOT
BRANCH   1   2
ATOM      2  N   ILE A   1      -3.668   7.855   6.753  0.00  0.00    -0.239 NA
ATOM      3  H   ILE A   1      -4.508   8.413   7.007  0.00  0.00    +0.142 HD
ENDBRANCH   1   2
BRANCH   1   4
ATOM      4  C   ILE A   1      -2.552   8.229   8.860  0.00  0.00    +0.224 C 
ATOM      5  O   ILE A   1      -3.639   8.470   9.325  0.00  0.00    -0.287 OA
ENDBRANCH   1   4
BRANCH   1   6
ATOM      6  CB  ILE A   1      -1.673   9.367   6.859  0.00  0.00    +0.023 C 
ATOM      7  CG2 ILE A   1      -1.345   9.210   5.416  0.00  0.00    +0.002 C 
BRANCH   6   8
ATOM      8  CG1 ILE A   1      -2.485  10.631   7.210  0.00  0.00    +0.002 C 
ATOM      9  CD1 ILE A   1      -1.773  11.892   6.790  0.00  0.00    +0.000 C 
ENDBRANCH   6   8
ENDBRANCH   1   6
TORSDOF 4
REMARK  Name = ../refined-set-2016/1izi/1izi_pocket.pdb
REMARK  218 active torsions:
REMARK  status: ('A' for Active; 'I' for Inactive)
REMARK    1  A    between atoms: _1  and  _3
REMARK    2  A    between atoms: _3  and  _4
REMARK    3  A    between atoms: _3  and  _6
REMARK    4  A    between atoms: _6  and  _7
REMARK    5  A    between atoms: _7  and  _8
REMARK    6  A    between atoms: _8  and  _9
REMARK    7  A    between atoms: _18  and  _20
REMARK    8  A    between atoms: _20  and  _21
REMARK    9  A    between atoms: _20  and  _23
REMARK   10  A    between atoms: _23  and  _24
REMARK   11  A    between atoms: _27  and  _29
REMARK   12  A    between atoms: _29  and  _30
REMARK   13  A    between atoms: _29  and  _32
REMARK   14  A    between atoms: _32  and  _33
REMARK   15  A    between atoms: _36  and  _38
REMARK   16  A    between atoms: _38  and  _39
REMARK   17  A    between atoms: _38  and  _41
REMARK   18  A    between atoms: _41  and  _42
REMARK   19  A    between atoms: _45  and  _47
REMARK   20  A    between atoms: _47  and  _48
REMARK   21  A    between atoms: _47  and  _50
REMARK   22  A    between atoms: _50  and  _51
REMARK   23  A    between atoms: _54  and  _56
REMARK   24  A    between atoms: _56  and  _57
REMARK   25  A    between atoms: _59  and  _61
REMARK   26  A    between atoms: _61  and  _62
REMARK   27  A    between atoms: _65  and  _67
REMARK   28  A    between atoms: _67  and  _68
REMARK   29  A    between atoms: _67  and  _70
REMARK   30  A    between atoms: _70  and  _71
REMARK   31  A    between atoms: _74  and  _76
REMARK   32  A    between atoms: _76  and  _77
REMARK   33  A    between atoms: _76  and  _79
REMARK   34  A    between atoms: _79  and  _80
REMARK   35  A    between atoms: _83  and  _85
REMARK   36  A    between atoms: _85  and  _86
REMARK   37  A    between atoms: _85  and  _88
REMARK   38  A    between atoms: _88  and  _89
REMARK   39  A    between atoms: _92  and  _94
REMARK   40  A    between atoms: _94  and  _95
REMARK   41  A    between atoms: _94  and  _97
REMARK   42  A    between atoms: _100  and  _102
REMARK   43  A    between atoms: _102  and  _103
REMARK   44  A    between atoms: _102  and  _105
REMARK   45  A    between atoms: _105  and  _106
REMARK   46  A    between atoms: _109  and  _111
REMARK   47  A    between atoms: _111  and  _112
REMARK   48  A    between atoms: _111  and  _114
REMARK   49  A    between atoms: _114  and  _115
REMARK   50  A    between atoms: _115  and  _116
REMARK   51  A    between atoms: _118  and  _120
REMARK   52  A    between atoms: _120  and  _121
REMARK   53  A    between atoms: _120  and  _123
REMARK   54  A    between atoms: _123  and  _124
REMARK   55  A    between atoms: _127  and  _129
REMARK   56  A    between atoms: _129  and  _130
REMARK   57  A    between atoms: _132  and  _134
REMARK   58  A    between atoms: _134  and  _135
REMARK   59  A    between atoms: _137  and  _139
REMARK   60  A    between atoms: _139  and  _140
REMARK   61  A    between atoms: _139  and  _142
REMARK   62  A    between atoms: _142  and  _143
REMARK   63  A    between atoms: _146  and  _148
REMARK   64  A    between atoms: _148  and  _149
REMARK   65  A    between atoms: _151  and  _153
REMARK   66  A    between atoms: _153  and  _154
REMARK   67  A    between atoms: _156  and  _158
REMARK   68  A    between atoms: _158  and  _159
REMARK   69  A    between atoms: _158  and  _161
REMARK   70  A    between atoms: _161  and  _162
REMARK   71  A    between atoms: _165  and  _167
REMARK   72  A    between atoms: _167  and  _168
REMARK   73  A    between atoms: _167  and  _170
REMARK   74  A    between atoms: _173  and  _175
REMARK   75  A    between atoms: _175  and  _176
REMARK   76  A    between atoms: _175  and  _178
REMARK   77  A    between atoms: _178  and  _179
REMARK   78  A    between atoms: _182  and  _184
REMARK   79  A    between atoms: _184  and  _185
REMARK   80  A    between atoms: _184  and  _187
REMARK   81  A    between atoms: _187  and  _188
REMARK   82  A    between atoms: _192  and  _193
REMARK   83  A    between atoms: _198  and  _200
REMARK   84  A    between atoms: _200  and  _201
REMARK   85  A    between atoms: _200  and  _203
REMARK   86  A    between atoms: _203  and  _204
REMARK   87  A    between atoms: _207  and  _209
REMARK   88  A    between atoms: _209  and  _210
REMARK   89  A    between atoms: _209  and  _212
REMARK   90  A    between atoms: _212  and  _213
REMARK   91  A    between atoms: _218  and  _220
REMARK   92  A    between atoms: _220  and  _221
REMARK   93  A    between atoms: _220  and  _223
REMARK   94  A    between atoms: _226  and  _228
REMARK   95  A    between atoms: _228  and  _229
REMARK   96  A    between atoms: _228  and  _231
REMARK   97  A    between atoms: _231  and  _232
REMARK   98  A    between atoms: _235  and  _237
REMARK   99  A    between atoms: _237  and  _238
REMARK  100  A    between atoms: _240  and  _242
REMARK  101  A    between atoms: _242  and  _243
REMARK  102  A    between atoms: _242  and  _245
REMARK  103  A    between atoms: _245  and  _246
REMARK  104  A    between atoms: _246  and  _247
REMARK  105  A    between atoms: _247  and  _248
REMARK  106  A    between atoms: _257  and  _259
REMARK  107  A    between atoms: _259  and  _260
REMARK  108  A    between atoms: _259  and  _262
REMARK  109  A    between atoms: _262  and  _263
REMARK  110  A    between atoms: _268  and  _270
REMARK  111  A    between atoms: _270  and  _271
REMARK  112  A    between atoms: _270  and  _273
REMARK  113  A    between atoms: _273  and  _274
REMARK  114  A    between atoms: _274  and  _275
REMARK  115  A    between atoms: _275  and  _276
REMARK  116  A    between atoms: _285  and  _287
REMARK  117  A    between atoms: _287  and  _288
REMARK  118  A    between atoms: _287  and  _290
REMARK  119  A    between atoms: _290  and  _291
REMARK  120  A    between atoms: _294  and  _296
REMARK  121  A    between atoms: _296  and  _297
REMARK  122  A    between atoms: _296  and  _299
REMARK  123  A    between atoms: _299  and  _300
REMARK  124  A    between atoms: _303  and  _305
REMARK  125  A    between atoms: _305  and  _306
REMARK  126  A    between atoms: _305  and  _308
REMARK  127  A    between atoms: _308  and  _309
REMARK  128  A    between atoms: _312  and  _314
REMARK  129  A    between atoms: _314  and  _315
REMARK  130  A    between atoms: _314  and  _317
REMARK  131  A    between atoms: _317  and  _318
REMARK  132  A    between atoms: _321  and  _323
REMARK  133  A    between atoms: _323  and  _324
REMARK  134  A    between atoms: _326  and  _328
REMARK  135  A    between atoms: _328  and  _329
REMARK  136  A    between atoms: _332  and  _334
REMARK  137  A    between atoms: _334  and  _335
REMARK  138  A    between atoms: _334  and  _337
REMARK  139  A    between atoms: _337  and  _338
REMARK  140  A    between atoms: _341  and  _343
REMARK  141  A    between atoms: _343  and  _344
REMARK  142  A    between atoms: _343  and  _346
REMARK  143  A    between atoms: _346  and  _347
REMARK  144  A    between atoms: _350  and  _352
REMARK  145  A    between atoms: _352  and  _353
REMARK  146  A    between atoms: _352  and  _355
REMARK  147  A    between atoms: _355  and  _356
REMARK  148  A    between atoms: _359  and  _361
REMARK  149  A    between atoms: _361  and  _362
REMARK  150  A    between atoms: _361  and  _364
REMARK  151  A    between atoms: _367  and  _369
REMARK  152  A    between atoms: _369  and  _370
REMARK  153  A    between atoms: _369  and  _372
REMARK  154  A    between atoms: _372  and  _373
REMARK  155  A    between atoms: _373  and  _374
REMARK  156  A    between atoms: _376  and  _378
REMARK  157  A    between atoms: _378  and  _379
REMARK  158  A    between atoms: _378  and  _381
REMARK  159  A    between atoms: _381  and  _382
REMARK  160  A    between atoms: _385  and  _387
REMARK  161  A    between atoms: _387  and  _388
REMARK  162  A    between atoms: _390  and  _392
REMARK  163  A    between atoms: _392  and  _393
REMARK  164  A    between atoms: _395  and  _397
REMARK  165  A    between atoms: _397  and  _398
REMARK  166  A    between atoms: _397  and  _400
REMARK  167  A    between atoms: _400  and  _401
REMARK  168  A    between atoms: _404  and  _406
REMARK  169  A    between atoms: _406  and  _407
REMARK  170  A    between atoms: _409  and  _411
REMARK  171  A    between atoms: _411  and  _412
REMARK  172  A    between atoms: _414  and  _416
REMARK  173  A    between atoms: _416  and  _417
REMARK  174  A    between atoms: _416  and  _419
REMARK  175  A    between atoms: _419  and  _420
REMARK  176  A    between atoms: _426  and  _428
REMARK  177  A    between atoms: _428  and  _429
REMARK  178  A    between atoms: _428  and  _431
REMARK  179  A    between atoms: _431  and  _432
REMARK  180  A    between atoms: _435  and  _437
REMARK  181  A    between atoms: _437  and  _438
REMARK  182  A    between atoms: _437  and  _440
REMARK  183  A    between atoms: _443  and  _445
REMARK  184  A    between atoms: _445  and  _446
REMARK  185  A    between atoms: _445  and  _448
REMARK  186  A    between atoms: _448  and  _449
REMARK  187  A    between atoms: _452  and  _454
REMARK  188  A    between atoms: _454  and  _455
REMARK  189  A    between atoms: _454  and  _457
REMARK  190  A    between atoms: _457  and  _458
REMARK  191  A    between atoms: _462  and  _463
REMARK  192  A    between atoms: _468  and  _470
REMARK  193  A    between atoms: _470  and  _471
REMARK  194  A    between atoms: _470  and  _473
REMARK  195  A    between atoms: _473  and  _474
REMARK  196  A    between atoms: _477  and  _479
REMARK  197  A    between atoms: _479  and  _480
REMARK  198  A    between atoms: _479  and  _482
REMARK  199  A    between atoms: _482  and  _483
REMARK  200  A    between atoms: _488  and  _490
REMARK  201  A    between atoms: _490  and  _491
REMARK  202  A    between atoms: _490  and  _493
REMARK  203  A    between atoms: _496  and  _498
REMARK  204  A    between atoms: _498  and  _499
REMARK  205  A    between atoms: _498  and  _501
REMARK  206  A    between atoms: _501  and  _502
REMARK  207  A    between atoms: _505  and  _507
REMARK  208  A    between atoms: _507  and  _508
REMARK  209  A    between atoms: _510  and  _512
REMARK  210  A    between atoms: _512  and  _513
REMARK  211  A    between atoms: _512  and  _515
REMARK  212  A    between atoms: _515  and  _516
REMARK  213  A    between atoms: _516  and  _517
REMARK  214  A    between atoms: _517  and  _518
REMARK  215  A    between atoms: _527  and  _529
REMARK  216  A    between atoms: _529  and  _530
REMARK  217  A    between atoms: _529  and  _532
REMARK  218  A    between atoms: _532  and  _533
REMARK                            x       y       z     vdW  Elec       q    Type
REMARK                         _______ _______ _______ _____ _____    ______ ____
ROOT
ATOM      1  CA  VAL A   1      -1.533  11.583  12.631  0.00  0.00    +0.133 C 
ENDROOT
BRANCH   1   2
ATOM      2  CB  VAL A   1      -2.591  12.568  12.112  0.00  0.00    +0.023 C 
ATOM      3  CG2 VAL A   1      -3.984  12.225  12.651  0.00  0.00    +0.002 C 
ATOM      4  CG1 VAL A   1      -2.594  12.563  10.645  0.00  0.00    +0.002 C 
ENDBRANCH   1   2
BRANCH   1   5
ATOM      5  N   VAL A   1      -1.836  10.219  12.225  0.00  0.00    -0.239 NA
ATOM      6  H   VAL A   1      -2.637   9.720  12.663  0.00  0.00    +0.142 HD
ENDBRANCH   1   5
BRANCH   1   7
ATOM      7  C   VAL A   1      -1.521  11.748  14.150  0.00  0.00    +0.224 C 
ATOM      8  O   VAL A   1      -2.094  10.934  14.902  0.00  0.00    -0.287 OA
ENDBRANCH   1   7
TORSDOF 3
REMARK  Name = ../refined-set-2016/1izi/1izi_pocket.pdb
REMARK  218 active torsions:
REMARK  status: ('A' for Active; 'I' for Inactive)
REMARK    1  A    between atoms: _1  and  _3
REMARK    2  A    between atoms: _3  and  _4
REMARK    3  A    between atoms: _3  and  _6
REMARK    4  A    between atoms: _6  and  _7
REMARK    5  A    between atoms: _7  and  _8
REMARK    6  A    between atoms: _8  and  _9
REMARK    7  A    between atoms: _18  and  _20
REMARK    8  A    between atoms: _20  and  _21
REMARK    9  A    between atoms: _20  and  _23
REMARK   10  A    between atoms: _23  and  _24
REMARK   11  A    between atoms: _27  and  _29
REMARK   12  A    between atoms: _29  and  _30
REMARK   13  A    between atoms: _29  and  _32
REMARK   14  A    between atoms: _32  and  _33
REMARK   15  A    between atoms: _36  and  _38
REMARK   16  A    between atoms: _38  and  _39
REMARK   17  A    between atoms: _38  and  _41
REMARK   18  A    between atoms: _41  and  _42
REMARK   19  A    between atoms: _45  and  _47
REMARK   20  A    between atoms: _47  and  _48
REMARK   21  A    between atoms: _47  and  _50
REMARK   22  A    between atoms: _50  and  _51
REMARK   23  A    between atoms: _54  and  _56
REMARK   24  A    between atoms: _56  and  _57
REMARK   25  A    between atoms: _59  and  _61
REMARK   26  A    between atoms: _61  and  _62
REMARK   27  A    between atoms: _65  and  _67
REMARK   28  A    between atoms: _67  and  _68
REMARK   29  A    between atoms: _67  and  _70
REMARK   30  A    between atoms: _70  and  _71
REMARK   31  A    between atoms: _74  and  _76
REMARK   32  A    between atoms: _76  and  _77
REMARK   33  A    between atoms: _76  and  _79
REMARK   34  A    between atoms: _79  and  _80
REMARK   35  A    between atoms: _83  and  _85
REMARK   36  A    between atoms: _85  and  _86
REMARK   37  A    between atoms: _85  and  _88
REMARK   38  A    between atoms: _88  and  _89
REMARK   39  A    between atoms: _92  and  _94
REMARK   40  A    between atoms: _94  and  _95
REMARK   41  A    between atoms: _94  and  _97
REMARK   42  A    between atoms: _100  and  _102
REMARK   43  A    between atoms: _102  and  _103
REMARK   44  A    between atoms: _102  and  _105
REMARK   45  A    between atoms: _105  and  _106
REMARK   46  A    between atoms: _109  and  _111
REMARK   47  A    between atoms: _111  and  _112
REMARK   48  A    between atoms: _111  and  _114
REMARK   49  A    between atoms: _114  and  _115
REMARK   50  A    between atoms: _115  and  _116
REMARK   51  A    between atoms: _118  and  _120
REMARK   52  A    between atoms: _120  and  _121
REMARK   53  A    between atoms: _120  and  _123
REMARK   54  A    between atoms: _123  and  _124
REMARK   55  A    between atoms: _127  and  _129
REMARK   56  A    between atoms: _129  and  _130
REMARK   57  A    between atoms: _132  and  _134
REMARK   58  A    between atoms: _134  and  _135
REMARK   59  A    between atoms: _137  and  _139
REMARK   60  A    between atoms: _139  and  _140
REMARK   61  A    between atoms: _139  and  _142
REMARK   62  A    between atoms: _142  and  _143
REMARK   63  A    between atoms: _146  and  _148
REMARK   64  A    between atoms: _148  and  _149
REMARK   65  A    between atoms: _151  and  _153
REMARK   66  A    between atoms: _153  and  _154
REMARK   67  A    between atoms: _156  and  _158
REMARK   68  A    between atoms: _158  and  _159
REMARK   69  A    between atoms: _158  and  _161
REMARK   70  A    between atoms: _161  and  _162
REMARK   71  A    between atoms: _165  and  _167
REMARK   72  A    between atoms: _167  and  _168
REMARK   73  A    between atoms: _167  and  _170
REMARK   74  A    between atoms: _173  and  _175
REMARK   75  A    between atoms: _175  and  _176
REMARK   76  A    between atoms: _175  and  _178
REMARK   77  A    between atoms: _178  and  _179
REMARK   78  A    between atoms: _182  and  _184
REMARK   79  A    between atoms: _184  and  _185
REMARK   80  A    between atoms: _184  and  _187
REMARK   81  A    between atoms: _187  and  _188
REMARK   82  A    between atoms: _192  and  _193
REMARK   83  A    between atoms: _198  and  _200
REMARK   84  A    between atoms: _200  and  _201
REMARK   85  A    between atoms: _200  and  _203
REMARK   86  A    between atoms: _203  and  _204
REMARK   87  A    between atoms: _207  and  _209
REMARK   88  A    between atoms: _209  and  _210
REMARK   89  A    between atoms: _209  and  _212
REMARK   90  A    between atoms: _212  and  _213
REMARK   91  A    between atoms: _218  and  _220
REMARK   92  A    between atoms: _220  and  _221
REMARK   93  A    between atoms: _220  and  _223
REMARK   94  A    between atoms: _226  and  _228
REMARK   95  A    between atoms: _228  and  _229
REMARK   96  A    between atoms: _228  and  _231
REMARK   97  A    between atoms: _231  and  _232
REMARK   98  A    between atoms: _235  and  _237
REMARK   99  A    between atoms: _237  and  _238
REMARK  100  A    between atoms: _240  and  _242
REMARK  101  A    between atoms: _242  and  _243
REMARK  102  A    between atoms: _242  and  _245
REMARK  103  A    between atoms: _245  and  _246
REMARK  104  A    between atoms: _246  and  _247
REMARK  105  A    between atoms: _247  and  _248
REMARK  106  A    between atoms: _257  and  _259
REMARK  107  A    between atoms: _259  and  _260
REMARK  108  A    between atoms: _259  and  _262
REMARK  109  A    between atoms: _262  and  _263
REMARK  110  A    between atoms: _268  and  _270
REMARK  111  A    between atoms: _270  and  _271
REMARK  112  A    between atoms: _270  and  _273
REMARK  113  A    between atoms: _273  and  _274
REMARK  114  A    between atoms: _274  and  _275
REMARK  115  A    between atoms: _275  and  _276
REMARK  116  A    between atoms: _285  and  _287
REMARK  117  A    between atoms: _287  and  _288
REMARK  118  A    between atoms: _287  and  _290
REMARK  119  A    between atoms: _290  and  _291
REMARK  120  A    between atoms: _294  and  _296
REMARK  121  A    between atoms: _296  and  _297
REMARK  122  A    between atoms: _296  and  _299
REMARK  123  A    between atoms: _299  and  _300
REMARK  124  A    between atoms: _303  and  _305
REMARK  125  A    between atoms: _305  and  _306
REMARK  126  A    between atoms: _305  and  _308
REMARK  127  A    between atoms: _308  and  _309
REMARK  128  A    between atoms: _312  and  _314
REMARK  129  A    between atoms: _314  and  _315
REMARK  130  A    between atoms: _314  and  _317
REMARK  131  A    between atoms: _317  and  _318
REMARK  132  A    between atoms: _321  and  _323
REMARK  133  A    between atoms: _323  and  _324
REMARK  134  A    between atoms: _326  and  _328
REMARK  135  A    between atoms: _328  and  _329
REMARK  136  A    between atoms: _332  and  _334
REMARK  137  A    between atoms: _334  and  _335
REMARK  138  A    between atoms: _334  and  _337
REMARK  139  A    between atoms: _337  and  _338
REMARK  140  A    between atoms: _341  and  _343
REMARK  141  A    between atoms: _343  and  _344
REMARK  142  A    between atoms: _343  and  _346
REMARK  143  A    between atoms: _346  and  _347
REMARK  144  A    between atoms: _350  and  _352
REMARK  145  A    between atoms: _352  and  _353
REMARK  146  A    between atoms: _352  and  _355
REMARK  147  A    between atoms: _355  and  _356
REMARK  148  A    between atoms: _359  and  _361
REMARK  149  A    between atoms: _361  and  _362
REMARK  150  A    between atoms: _361  and  _364
REMARK  151  A    between atoms: _367  and  _369
REMARK  152  A    between atoms: _369  and  _370
REMARK  153  A    between atoms: _369  and  _372
REMARK  154  A    between atoms: _372  and  _373
REMARK  155  A    between atoms: _373  and  _374
REMARK  156  A    between atoms: _376  and  _378
REMARK  157  A    between atoms: _378  and  _379
REMARK  158  A    between atoms: _378  and  _381
REMARK  159  A    between atoms: _381  and  _382
REMARK  160  A    between atoms: _385  and  _387
REMARK  161  A    between atoms: _387  and  _388
REMARK  162  A    between atoms: _390  and  _392
REMARK  163  A    between atoms: _392  and  _393
REMARK  164  A    between atoms: _395  and  _397
REMARK  165  A    between atoms: _397  and  _398
REMARK  166  A    between atoms: _397  and  _400
REMARK  167  A    between atoms: _400  and  _401
REMARK  168  A    between atoms: _404  and  _406
REMARK  169  A    between atoms: _406  and  _407
REMARK  170  A    between atoms: _409  and  _411
REMARK  171  A    between atoms: _411  and  _412
REMARK  172  A    between atoms: _414  and  _416
REMARK  173  A    between atoms: _416  and  _417
REMARK  174  A    between atoms: _416  and  _419
REMARK  175  A    between atoms: _419  and  _420
REMARK  176  A    between atoms: _426  and  _428
REMARK  177  A    between atoms: _428  and  _429
REMARK  178  A    between atoms: _428  and  _431
REMARK  179  A    between atoms: _431  and  _432
REMARK  180  A    between atoms: _435  and  _437
REMARK  181  A    between atoms: _437  and  _438
REMARK  182  A    between atoms: _437  and  _440
REMARK  183  A    between atoms: _443  and  _445
REMARK  184  A    between atoms: _445  and  _446
REMARK  185  A    between atoms: _445  and  _448
REMARK  186  A    between atoms: _448  and  _449
REMARK  187  A    between atoms: _452  and  _454
REMARK  188  A    between atoms: _454  and  _455
REMARK  189  A    between atoms: _454  and  _457
REMARK  190  A    between atoms: _457  and  _458
REMARK  191  A    between atoms: _462  and  _463
REMARK  192  A    between atoms: _468  and  _470
REMARK  193  A    between atoms: _470  and  _471
REMARK  194  A    between atoms: _470  and  _473
REMARK  195  A    between atoms: _473  and  _474
REMARK  196  A    between atoms: _477  and  _479
REMARK  197  A    between atoms: _479  and  _480
REMARK  198  A    between atoms: _479  and  _482
REMARK  199  A    between atoms: _482  and  _483
REMARK  200  A    between atoms: _488  and  _490
REMARK  201  A    between atoms: _490  and  _491
REMARK  202  A    between atoms: _490  and  _493
REMARK  203  A    between atoms: _496  and  _498
REMARK  204  A    between atoms: _498  and  _499
REMARK  205  A    between atoms: _498  and  _501
REMARK  206  A    between atoms: _501  and  _502
REMARK  207  A    between atoms: _505  and  _507
REMARK  208  A    between atoms: _507  and  _508
REMARK  209  A    between atoms: _510  and  _512
REMARK  210  A    between atoms: _512  and  _513
REMARK  211  A    between atoms: _512  and  _515
REMARK  212  A    between atoms: _515  and  _516
REMARK  213  A    between atoms: _516  and  _517
REMARK  214  A    between atoms: _517  and  _518
REMARK  215  A    between atoms: _527  and  _529
REMARK  216  A    between atoms: _529  and  _530
REMARK  217  A    between atoms: _529  and  _532
REMARK  218  A    between atoms: _532  and  _533
REMARK                            x       y       z     vdW  Elec       q    Type
REMARK                         _______ _______ _______ _____ _____    ______ ____
ROOT
ATOM      1  CA  LEU A   1      -3.784  17.046  13.352  0.00  0.00    +0.133 C 
ENDROOT
BRANCH   1   2
ATOM      2  N   LEU A   1      -4.363  18.379  13.537  0.00  0.00    -0.239 NA
ATOM      3  H   LEU A   1      -4.804  18.848  12.720  0.00  0.00    +0.142 HD
ENDBRANCH   1   2
BRANCH   1   4
ATOM      4  C   LEU A   1      -2.448  17.221  12.672  0.00  0.00    +0.224 C 
ATOM      5  O   LEU A   1      -2.327  18.035  11.791  0.00  0.00    -0.287 OA
ENDBRANCH   1   4
BRANCH   1   6
ATOM      6  CB  LEU A   1      -4.701  16.147  12.482  0.00  0.00    +0.025 C 
BRANCH   6   7
ATOM      7  CG  LEU A   1      -6.156  15.904  12.950  0.00  0.00    +0.002 C 
ATOM      8  CD2 LEU A   1      -6.227  15.478  14.419  0.00  0.00    +0.000 C 
ATOM      9  CD1 LEU A   1      -6.903  14.853  12.062  0.00  0.00    +0.000 C 
ENDBRANCH   6   7
ENDBRANCH   1   6
TORSDOF 4
REMARK  Name = ../refined-set-2016/1izi/1izi_pocket.pdb
REMARK  218 active torsions:
REMARK  status: ('A' for Active; 'I' for Inactive)
REMARK    1  A    between atoms: _1  and  _3
REMARK    2  A    between atoms: _3  and  _4
REMARK    3  A    between atoms: _3  and  _6
REMARK    4  A    between atoms: _6  and  _7
REMARK    5  A    between atoms: _7  and  _8
REMARK    6  A    between atoms: _8  and  _9
REMARK    7  A    between atoms: _18  and  _20
REMARK    8  A    between atoms: _20  and  _21
REMARK    9  A    between atoms: _20  and  _23
REMARK   10  A    between atoms: _23  and  _24
REMARK   11  A    between atoms: _27  and  _29
REMARK   12  A    between atoms: _29  and  _30
REMARK   13  A    between atoms: _29  and  _32
REMARK   14  A    between atoms: _32  and  _33
REMARK   15  A    between atoms: _36  and  _38
REMARK   16  A    between atoms: _38  and  _39
REMARK   17  A    between atoms: _38  and  _41
REMARK   18  A    between atoms: _41  and  _42
REMARK   19  A    between atoms: _45  and  _47
REMARK   20  A    between atoms: _47  and  _48
REMARK   21  A    between atoms: _47  and  _50
REMARK   22  A    between atoms: _50  and  _51
REMARK   23  A    between atoms: _54  and  _56
REMARK   24  A    between atoms: _56  and  _57
REMARK   25  A    between atoms: _59  and  _61
REMARK   26  A    between atoms: _61  and  _62
REMARK   27  A    between atoms: _65  and  _67
REMARK   28  A    between atoms: _67  and  _68
REMARK   29  A    between atoms: _67  and  _70
REMARK   30  A    between atoms: _70  and  _71
REMARK   31  A    between atoms: _74  and  _76
REMARK   32  A    between atoms: _76  and  _77
REMARK   33  A    between atoms: _76  and  _79
REMARK   34  A    between atoms: _79  and  _80
REMARK   35  A    between atoms: _83  and  _85
REMARK   36  A    between atoms: _85  and  _86
REMARK   37  A    between atoms: _85  and  _88
REMARK   38  A    between atoms: _88  and  _89
REMARK   39  A    between atoms: _92  and  _94
REMARK   40  A    between atoms: _94  and  _95
REMARK   41  A    between atoms: _94  and  _97
REMARK   42  A    between atoms: _100  and  _102
REMARK   43  A    between atoms: _102  and  _103
REMARK   44  A    between atoms: _102  and  _105
REMARK   45  A    between atoms: _105  and  _106
REMARK   46  A    between atoms: _109  and  _111
REMARK   47  A    between atoms: _111  and  _112
REMARK   48  A    between atoms: _111  and  _114
REMARK   49  A    between atoms: _114  and  _115
REMARK   50  A    between atoms: _115  and  _116
REMARK   51  A    between atoms: _118  and  _120
REMARK   52  A    between atoms: _120  and  _121
REMARK   53  A    between atoms: _120  and  _123
REMARK   54  A    between atoms: _123  and  _124
REMARK   55  A    between atoms: _127  and  _129
REMARK   56  A    between atoms: _129  and  _130
REMARK   57  A    between atoms: _132  and  _134
REMARK   58  A    between atoms: _134  and  _135
REMARK   59  A    between atoms: _137  and  _139
REMARK   60  A    between atoms: _139  and  _140
REMARK   61  A    between atoms: _139  and  _142
REMARK   62  A    between atoms: _142  and  _143
REMARK   63  A    between atoms: _146  and  _148
REMARK   64  A    between atoms: _148  and  _149
REMARK   65  A    between atoms: _151  and  _153
REMARK   66  A    between atoms: _153  and  _154
REMARK   67  A    between atoms: _156  and  _158
REMARK   68  A    between atoms: _158  and  _159
REMARK   69  A    between atoms: _158  and  _161
REMARK   70  A    between atoms: _161  and  _162
REMARK   71  A    between atoms: _165  and  _167
REMARK   72  A    between atoms: _167  and  _168
REMARK   73  A    between atoms: _167  and  _170
REMARK   74  A    between atoms: _173  and  _175
REMARK   75  A    between atoms: _175  and  _176
REMARK   76  A    between atoms: _175  and  _178
REMARK   77  A    between atoms: _178  and  _179
REMARK   78  A    between atoms: _182  and  _184
REMARK   79  A    between atoms: _184  and  _185
REMARK   80  A    between atoms: _184  and  _187
REMARK   81  A    between atoms: _187  and  _188
REMARK   82  A    between atoms: _192  and  _193
REMARK   83  A    between atoms: _198  and  _200
REMARK   84  A    between atoms: _200  and  _201
REMARK   85  A    between atoms: _200  and  _203
REMARK   86  A    between atoms: _203  and  _204
REMARK   87  A    between atoms: _207  and  _209
REMARK   88  A    between atoms: _209  and  _210
REMARK   89  A    between atoms: _209  and  _212
REMARK   90  A    between atoms: _212  and  _213
REMARK   91  A    between atoms: _218  and  _220
REMARK   92  A    between atoms: _220  and  _221
REMARK   93  A    between atoms: _220  and  _223
REMARK   94  A    between atoms: _226  and  _228
REMARK   95  A    between atoms: _228  and  _229
REMARK   96  A    between atoms: _228  and  _231
REMARK   97  A    between atoms: _231  and  _232
REMARK   98  A    between atoms: _235  and  _237
REMARK   99  A    between atoms: _237  and  _238
REMARK  100  A    between atoms: _240  and  _242
REMARK  101  A    between atoms: _242  and  _243
REMARK  102  A    between atoms: _242  and  _245
REMARK  103  A    between atoms: _245  and  _246
REMARK  104  A    between atoms: _246  and  _247
REMARK  105  A    between atoms: _247  and  _248
REMARK  106  A    between atoms: _257  and  _259
REMARK  107  A    between atoms: _259  and  _260
REMARK  108  A    between atoms: _259  and  _262
REMARK  109  A    between atoms: _262  and  _263
REMARK  110  A    between atoms: _268  and  _270
REMARK  111  A    between atoms: _270  and  _271
REMARK  112  A    between atoms: _270  and  _273
REMARK  113  A    between atoms: _273  and  _274
REMARK  114  A    between atoms: _274  and  _275
REMARK  115  A    between atoms: _275  and  _276
REMARK  116  A    between atoms: _285  and  _287
REMARK  117  A    between atoms: _287  and  _288
REMARK  118  A    between atoms: _287  and  _290
REMARK  119  A    between atoms: _290  and  _291
REMARK  120  A    between atoms: _294  and  _296
REMARK  121  A    between atoms: _296  and  _297
REMARK  122  A    between atoms: _296  and  _299
REMARK  123  A    between atoms: _299  and  _300
REMARK  124  A    between atoms: _303  and  _305
REMARK  125  A    between atoms: _305  and  _306
REMARK  126  A    between atoms: _305  and  _308
REMARK  127  A    between atoms: _308  and  _309
REMARK  128  A    between atoms: _312  and  _314
REMARK  129  A    between atoms: _314  and  _315
REMARK  130  A    between atoms: _314  and  _317
REMARK  131  A    between atoms: _317  and  _318
REMARK  132  A    between atoms: _321  and  _323
REMARK  133  A    between atoms: _323  and  _324
REMARK  134  A    between atoms: _326  and  _328
REMARK  135  A    between atoms: _328  and  _329
REMARK  136  A    between atoms: _332  and  _334
REMARK  137  A    between atoms: _334  and  _335
REMARK  138  A    between atoms: _334  and  _337
REMARK  139  A    between atoms: _337  and  _338
REMARK  140  A    between atoms: _341  and  _343
REMARK  141  A    between atoms: _343  and  _344
REMARK  142  A    between atoms: _343  and  _346
REMARK  143  A    between atoms: _346  and  _347
REMARK  144  A    between atoms: _350  and  _352
REMARK  145  A    between atoms: _352  and  _353
REMARK  146  A    between atoms: _352  and  _355
REMARK  147  A    between atoms: _355  and  _356
REMARK  148  A    between atoms: _359  and  _361
REMARK  149  A    between atoms: _361  and  _362
REMARK  150  A    between atoms: _361  and  _364
REMARK  151  A    between atoms: _367  and  _369
REMARK  152  A    between atoms: _369  and  _370
REMARK  153  A    between atoms: _369  and  _372
REMARK  154  A    between atoms: _372  and  _373
REMARK  155  A    between atoms: _373  and  _374
REMARK  156  A    between atoms: _376  and  _378
REMARK  157  A    between atoms: _378  and  _379
REMARK  158  A    between atoms: _378  and  _381
REMARK  159  A    between atoms: _381  and  _382
REMARK  160  A    between atoms: _385  and  _387
REMARK  161  A    between atoms: _387  and  _388
REMARK  162  A    between atoms: _390  and  _392
REMARK  163  A    between atoms: _392  and  _393
REMARK  164  A    between atoms: _395  and  _397
REMARK  165  A    between atoms: _397  and  _398
REMARK  166  A    between atoms: _397  and  _400
REMARK  167  A    between atoms: _400  and  _401
REMARK  168  A    between atoms: _404  and  _406
REMARK  169  A    between atoms: _406  and  _407
REMARK  170  A    between atoms: _409  and  _411
REMARK  171  A    between atoms: _411  and  _412
REMARK  172  A    between atoms: _414  and  _416
REMARK  173  A    between atoms: _416  and  _417
REMARK  174  A    between atoms: _416  and  _419
REMARK  175  A    between atoms: _419  and  _420
REMARK  176  A    between atoms: _426  and  _428
REMARK  177  A    between atoms: _428  and  _429
REMARK  178  A    between atoms: _428  and  _431
REMARK  179  A    between atoms: _431  and  _432
REMARK  180  A    between atoms: _435  and  _437
REMARK  181  A    between atoms: _437  and  _438
REMARK  182  A    between atoms: _437  and  _440
REMARK  183  A    between atoms: _443  and  _445
REMARK  184  A    between atoms: _445  and  _446
REMARK  185  A    between atoms: _445  and  _448
REMARK  186  A    between atoms: _448  and  _449
REMARK  187  A    between atoms: _452  and  _454
REMARK  188  A    between atoms: _454  and  _455
REMARK  189  A    between atoms: _454  and  _457
REMARK  190  A    between atoms: _457  and  _458
REMARK  191  A    between atoms: _462  and  _463
REMARK  192  A    between atoms: _468  and  _470
REMARK  193  A    between atoms: _470  and  _471
REMARK  194  A    between atoms: _470  and  _473
REMARK  195  A    between atoms: _473  and  _474
REMARK  196  A    between atoms: _477  and  _479
REMARK  197  A    between atoms: _479  and  _480
REMARK  198  A    between atoms: _479  and  _482
REMARK  199  A    between atoms: _482  and  _483
REMARK  200  A    between atoms: _488  and  _490
REMARK  201  A    between atoms: _490  and  _491
REMARK  202  A    between atoms: _490  and  _493
REMARK  203  A    between atoms: _496  and  _498
REMARK  204  A    between atoms: _498  and  _499
REMARK  205  A    between atoms: _498  and  _501
REMARK  206  A    between atoms: _501  and  _502
REMARK  207  A    between atoms: _505  and  _507
REMARK  208  A    between atoms: _507  and  _508
REMARK  209  A    between atoms: _510  and  _512
REMARK  210  A    between atoms: _512  and  _513
REMARK  211  A    between atoms: _512  and  _515
REMARK  212  A    between atoms: _515  and  _516
REMARK  213  A    between atoms: _516  and  _517
REMARK  214  A    between atoms: _517  and  _518
REMARK  215  A    between atoms: _527  and  _529
REMARK  216  A    between atoms: _529  and  _530
REMARK  217  A    between atoms: _529  and  _532
REMARK  218  A    between atoms: _532  and  _533
REMARK                            x       y       z     vdW  Elec       q    Type
REMARK                         _______ _______ _______ _____ _____    ______ ____
ROOT
ATOM      1  C   VAL A   5      -6.011  22.308   6.215  0.00  0.00    +0.241 C 
ATOM      2  O   VAL A   5      -5.819  21.773   7.306  0.00  0.00    -0.273 OA
ATOM      3  N   ILE A   6      -6.761  23.406   6.065  0.00  0.00    -0.297 N 
ATOM      4  H   ILE A   6      -6.724  23.926   5.165  0.00  0.00    +0.150 HD
ENDROOT
BRANCH   1   5
ATOM      5  CA  VAL A   5      -5.265  21.846   4.982  0.00  0.00    +0.149 C 
BRANCH   5   7
ATOM      6  C   ASN A   4      -2.895  22.003   4.529  0.00  0.00    +0.241 C 
ATOM      7  N   VAL A   5      -3.850  21.523   5.321  0.00  0.00    -0.297 N 
ATOM      8  H   VAL A   5      -3.617  20.941   6.151  0.00  0.00    +0.150 HD
ATOM      9  O   ASN A   4      -3.191  22.621   3.544  0.00  0.00    -0.273 OA
BRANCH   6  10
ATOM     10  CA  ASN A   4      -1.393  21.719   4.850  0.00  0.00    +0.158 C 
BRANCH  10  13
ATOM     11  C   THR A   3      -1.079  19.966   3.197  0.00  0.00    +0.243 C 
ATOM     12  O   THR A   3      -1.888  19.213   3.733  0.00  0.00    -0.273 OA
ATOM     13  N   ASN A   4      -0.752  21.152   3.694  0.00  0.00    -0.297 N 
ATOM     14  H   ASN A   4       0.001  21.696   3.227  0.00  0.00    +0.150 HD
BRANCH  11  15
ATOM     15  CA  THR A   3      -0.351  19.542   1.920  0.00  0.00    +0.176 C 
BRANCH  15  17
ATOM     16  C   PRO A   2       0.937  17.618   1.231  0.00  0.00    +0.241 C 
ATOM     17  N   THR A   3      -0.112  18.102   1.904  0.00  0.00    -0.295 N 
ATOM     18  H   THR A   3      -0.752  17.458   2.412  0.00  0.00    +0.150 HD
ATOM     19  O   PRO A   2       1.684  18.327   0.554  0.00  0.00    -0.273 OA
BRANCH  16  26
ATOM     20  C   THR A   1       0.724  15.611   3.619  0.00  0.00    +0.244 C 
ATOM     21  O   THR A   1       1.667  16.315   3.963  0.00  0.00    -0.273 OA
ATOM     22  N   PRO A   2       0.377  15.469   2.354  0.00  0.00    -0.272 N 
ATOM     23  CD  PRO A   2      -0.755  14.667   1.877  0.00  0.00    +0.094 C 
ATOM     24  CG  PRO A   2      -0.381  14.430   0.457  0.00  0.00    +0.024 C 
ATOM     25  CB  PRO A   2       0.436  15.561  -0.018  0.00  0.00    +0.031 C 
ATOM     26  CA  PRO A   2       1.119  16.109   1.253  0.00  0.00    +0.152 C 
BRANCH  20  27
ATOM     27  CA  THR A   1      -0.154  14.915   4.652  0.00  0.00    +0.172 C 
BRANCH  27  28
ATOM     28  N   THR A   1       0.653  14.477   5.775  0.00  0.00    -0.236 NA
ATOM     29  H   THR A   1       0.543  14.911   6.714  0.00  0.00    +0.142 HD
ENDBRANCH  27  28
BRANCH  27  30
ATOM     30  CB  THR A   1      -1.266  15.904   5.109  0.00  0.00    +0.135 C 
ATOM     31  CG2 THR A   1      -0.668  17.080   5.886  0.00  0.00    +0.034 C 
BRANCH  30  32
ATOM     32  OG1 THR A   1      -1.839  16.540   3.952  0.00  0.00    -0.383 OA
ATOM     33  HG1 THR A   1      -2.547  17.170   4.240  0.00  0.00    +0.210 HD
ENDBRANCH  30  32
ENDBRANCH  27  30
ENDBRANCH  20  27
ENDBRANCH  16  26
ENDBRANCH  15  17
BRANCH  15  34
ATOM     34  CB  THR A   3      -1.166  19.887   0.674  0.00  0.00    +0.137 C 
ATOM     35  CG2 THR A   3      -2.571  19.790   1.022  0.00  0.00    +0.034 C 
BRANCH  34  36
ATOM     36  OG1 THR A   3      -1.076  21.278   0.393  0.00  0.00    -0.382 OA
ATOM     37  HG1 THR A   3      -1.608  21.485  -0.416  0.00  0.00    +0.210 HD
ENDBRANCH  34  36
ENDBRANCH  15  34
ENDBRANCH  11  15
ENDBRANCH  10  13
BRANCH  10  38
ATOM     38  CB  ASN A   4      -0.706  23.028   5.256  0.00  0.00    +0.114 C 
BRANCH  38  39
ATOM     39  CG  ASN A   4       0.704  22.818   5.856  0.00  0.00    +0.222 C 
ATOM     40  OD1 ASN A   4       1.032  21.746   6.403  0.00  0.00    -0.275 OA
ATOM     41  ND2 ASN A   4       1.522  23.847   5.766  0.00  0.00    -0.329 N 
ATOM     42 HD21 ASN A   4       2.483  23.784   6.160  0.00  0.00    +0.145 HD
ATOM     43 HD22 ASN A   4       1.207  24.722   5.301  0.00  0.00    +0.145 HD
ENDBRANCH  38  39
ENDBRANCH  10  38
ENDBRANCH   6  10
ENDBRANCH   5   7
BRANCH   5  44
ATOM     44  CB  VAL A   5      -6.026  20.664   4.300  0.00  0.00    +0.027 C 
ATOM     45  CG2 VAL A   5      -6.074  19.436   5.152  0.00  0.00    +0.002 C 
ATOM     46  CG1 VAL A   5      -5.348  20.268   3.027  0.00  0.00    +0.002 C 
ENDBRANCH   5  44
ENDBRANCH   1   5
BRANCH   3  47
ATOM     47  CA  ILE A   6      -7.626  23.890   7.127  0.00  0.00    +0.149 C 
BRANCH  47  48
ATOM     48  C   ILE A   6      -9.002  23.333   6.788  0.00  0.00    +0.241 C 
ATOM     49  N   GLY A   7      -9.540  22.506   7.677  0.00  0.00    -0.295 N 
ATOM     50  H   GLY A   7      -9.024  22.343   8.565  0.00  0.00    +0.150 HD
ATOM     51  O   ILE A   6      -9.571  23.691   5.764  0.00  0.00    -0.273 OA
BRANCH  49  52
ATOM     52  CA  GLY A   7     -10.777  21.830   7.490  0.00  0.00    +0.176 C 
BRANCH  52  53
ATOM     53  C   GLY A   7     -11.882  22.533   8.201  0.00  0.00    +0.243 C 
ATOM     54  O   GLY A   7     -11.693  23.619   8.822  0.00  0.00    -0.273 OA
ATOM     55  N   ARG A   8     -13.067  21.941   8.081  0.00  0.00    -0.297 N 
ATOM     56  H   ARG A   8     -13.114  21.012   7.615  0.00  0.00    +0.150 HD
BRANCH  55  57
ATOM     57  CA  ARG A   8     -14.307  22.540   8.576  0.00  0.00    +0.149 C 
BRANCH  57  58
ATOM     58  C   ARG A   8     -14.295  22.835  10.078  0.00  0.00    +0.241 C 
ATOM     59  N   ASN A   9     -13.611  22.012  10.843  0.00  0.00    -0.298 N 
ATOM     60  H   ASN A   9     -13.140  21.186  10.423  0.00  0.00    +0.150 HD
ATOM     61  O   ARG A   8     -14.858  23.834  10.502  0.00  0.00    -0.273 OA
BRANCH  59  62
ATOM     62  CA  ASN A   9     -13.511  22.251  12.266  0.00  0.00    +0.146 C 
BRANCH  62  63
ATOM     63  C   ASN A   9     -13.068  23.677  12.555  0.00  0.00    +0.227 C 
ATOM     64  O   ASN A   9     -13.581  24.343  13.472  0.00  0.00    -0.286 OA
ENDBRANCH  62  63
BRANCH  62  65
ATOM     65  CB  ASN A   9     -12.632  21.194  12.930  0.00  0.00    +0.112 C 
BRANCH  65  66
ATOM     66  CG  ASN A   9     -11.152  21.402  12.659  0.00  0.00    +0.222 C 
ATOM     67  ND2 ASN A   9     -10.399  21.569  13.707  0.00  0.00    -0.329 N 
ATOM     68 HD21 ASN A   9     -10.816  21.530  14.659  0.00  0.00    +0.145 HD
ATOM     69 HD22 ASN A   9      -9.380  21.742  13.593  0.00  0.00    +0.145 HD
ATOM     70  OD1 ASN A   9     -10.711  21.439  11.526  0.00  0.00    -0.275 OA
ENDBRANCH  65  66
ENDBRANCH  62  65
ENDBRANCH  59  62
ENDBRANCH  57  58
BRANCH  57  71
ATOM     71  CB  ARG A   8     -15.522  21.659   8.231  0.00  0.00    +0.033 C 
BRANCH  71  72
ATOM     72  CG  ARG A   8     -15.814  21.663   6.656  0.00  0.00    +0.045 C 
BRANCH  72  73
ATOM     73  CD  ARG A   8     -17.103  21.032   6.203  0.00  0.00    +0.174 C 
BRANCH  73  74
ATOM     74  NE  ARG A   8     -17.211  19.691   6.703  0.00  0.00    -0.265 N 
ATOM     75  CZ  ARG A   8     -17.819  19.379   7.862  0.00  0.00    +0.342 C 
ATOM     76  NH2 ARG A   8     -18.394  20.285   8.654  0.00  0.00    -0.292 N 
ATOM     77 HH21 ARG A   8     -18.850  19.987   9.540  0.00  0.00    +0.255 HD
ATOM     78 HH22 ARG A   8     -18.386  21.290   8.386  0.00  0.00    +0.255 HD
ATOM     79  NH1 ARG A   8     -17.821  18.146   8.230  0.00  0.00    -0.292 N 
ATOM     80 HH11 ARG A   8     -18.282  17.870   9.120  0.00  0.00    +0.255 HD
ATOM     81 HH12 ARG A   8     -17.362  17.426   7.637  0.00  0.00    +0.255 HD
ATOM     82  HE  ARG A   8     -16.798  18.920   6.140  0.00  0.00    +0.259 HD
ENDBRANCH  73  74
ENDBRANCH  72  73
ENDBRANCH  71  72
ENDBRANCH  57  71
ENDBRANCH  55  57
ENDBRANCH  52  53
ENDBRANCH  49  52
ENDBRANCH  47  48
BRANCH  47  83
ATOM     83  CB  ILE A   6      -7.701  25.405   7.117  0.00  0.00    +0.027 C 
ATOM     84  CG2 ILE A   6      -8.495  25.885   8.337  0.00  0.00    +0.002 C 
BRANCH  83  85
ATOM     85  CG1 ILE A   6      -6.297  26.037   6.967  0.00  0.00    +0.002 C 
ATOM     86  CD1 ILE A   6      -5.348  25.676   8.073  0.00  0.00    +0.000 C 
ENDBRANCH  83  85
ENDBRANCH  47  83
ENDBRANCH   3  47
TORSDOF 32
REMARK  Name = ../refined-set-2016/1izi/1izi_pocket.pdb
REMARK  218 active torsions:
REMARK  status: ('A' for Active; 'I' for Inactive)
REMARK    1  A    between atoms: _1  and  _3
REMARK    2  A    between atoms: _3  and  _4
REMARK    3  A    between atoms: _3  and  _6
REMARK    4  A    between atoms: _6  and  _7
REMARK    5  A    between atoms: _7  and  _8
REMARK    6  A    between atoms: _8  and  _9
REMARK    7  A    between atoms: _18  and  _20
REMARK    8  A    between atoms: _20  and  _21
REMARK    9  A    between atoms: _20  and  _23
REMARK   10  A    between atoms: _23  and  _24
REMARK   11  A    between atoms: _27  and  _29
REMARK   12  A    between atoms: _29  and  _30
REMARK   13  A    between atoms: _29  and  _32
REMARK   14  A    between atoms: _32  and  _33
REMARK   15  A    between atoms: _36  and  _38
REMARK   16  A    between atoms: _38  and  _39
REMARK   17  A    between atoms: _38  and  _41
REMARK   18  A    between atoms: _41  and  _42
REMARK   19  A    between atoms: _45  and  _47
REMARK   20  A    between atoms: _47  and  _48
REMARK   21  A    between atoms: _47  and  _50
REMARK   22  A    between atoms: _50  and  _51
REMARK   23  A    between atoms: _54  and  _56
REMARK   24  A    between atoms: _56  and  _57
REMARK   25  A    between atoms: _59  and  _61
REMARK   26  A    between atoms: _61  and  _62
REMARK   27  A    between atoms: _65  and  _67
REMARK   28  A    between atoms: _67  and  _68
REMARK   29  A    between atoms: _67  and  _70
REMARK   30  A    between atoms: _70  and  _71
REMARK   31  A    between atoms: _74  and  _76
REMARK   32  A    between atoms: _76  and  _77
REMARK   33  A    between atoms: _76  and  _79
REMARK   34  A    between atoms: _79  and  _80
REMARK   35  A    between atoms: _83  and  _85
REMARK   36  A    between atoms: _85  and  _86
REMARK   37  A    between atoms: _85  and  _88
REMARK   38  A    between atoms: _88  and  _89
REMARK   39  A    between atoms: _92  and  _94
REMARK   40  A    between atoms: _94  and  _95
REMARK   41  A    between atoms: _94  and  _97
REMARK   42  A    between atoms: _100  and  _102
REMARK   43  A    between atoms: _102  and  _103
REMARK   44  A    between atoms: _102  and  _105
REMARK   45  A    between atoms: _105  and  _106
REMARK   46  A    between atoms: _109  and  _111
REMARK   47  A    between atoms: _111  and  _112
REMARK   48  A    between atoms: _111  and  _114
REMARK   49  A    between atoms: _114  and  _115
REMARK   50  A    between atoms: _115  and  _116
REMARK   51  A    between atoms: _118  and  _120
REMARK   52  A    between atoms: _120  and  _121
REMARK   53  A    between atoms: _120  and  _123
REMARK   54  A    between atoms: _123  and  _124
REMARK   55  A    between atoms: _127  and  _129
REMARK   56  A    between atoms: _129  and  _130
REMARK   57  A    between atoms: _132  and  _134
REMARK   58  A    between atoms: _134  and  _135
REMARK   59  A    between atoms: _137  and  _139
REMARK   60  A    between atoms: _139  and  _140
REMARK   61  A    between atoms: _139  and  _142
REMARK   62  A    between atoms: _142  and  _143
REMARK   63  A    between atoms: _146  and  _148
REMARK   64  A    between atoms: _148  and  _149
REMARK   65  A    between atoms: _151  and  _153
REMARK   66  A    between atoms: _153  and  _154
REMARK   67  A    between atoms: _156  and  _158
REMARK   68  A    between atoms: _158  and  _159
REMARK   69  A    between atoms: _158  and  _161
REMARK   70  A    between atoms: _161  and  _162
REMARK   71  A    between atoms: _165  and  _167
REMARK   72  A    between atoms: _167  and  _168
REMARK   73  A    between atoms: _167  and  _170
REMARK   74  A    between atoms: _173  and  _175
REMARK   75  A    between atoms: _175  and  _176
REMARK   76  A    between atoms: _175  and  _178
REMARK   77  A    between atoms: _178  and  _179
REMARK   78  A    between atoms: _182  and  _184
REMARK   79  A    between atoms: _184  and  _185
REMARK   80  A    between atoms: _184  and  _187
REMARK   81  A    between atoms: _187  and  _188
REMARK   82  A    between atoms: _192  and  _193
REMARK   83  A    between atoms: _198  and  _200
REMARK   84  A    between atoms: _200  and  _201
REMARK   85  A    between atoms: _200  and  _203
REMARK   86  A    between atoms: _203  and  _204
REMARK   87  A    between atoms: _207  and  _209
REMARK   88  A    between atoms: _209  and  _210
REMARK   89  A    between atoms: _209  and  _212
REMARK   90  A    between atoms: _212  and  _213
REMARK   91  A    between atoms: _218  and  _220
REMARK   92  A    between atoms: _220  and  _221
REMARK   93  A    between atoms: _220  and  _223
REMARK   94  A    between atoms: _226  and  _228
REMARK   95  A    between atoms: _228  and  _229
REMARK   96  A    between atoms: _228  and  _231
REMARK   97  A    between atoms: _231  and  _232
REMARK   98  A    between atoms: _235  and  _237
REMARK   99  A    between atoms: _237  and  _238
REMARK  100  A    between atoms: _240  and  _242
REMARK  101  A    between atoms: _242  and  _243
REMARK  102  A    between atoms: _242  and  _245
REMARK  103  A    between atoms: _245  and  _246
REMARK  104  A    between atoms: _246  and  _247
REMARK  105  A    between atoms: _247  and  _248
REMARK  106  A    between atoms: _257  and  _259
REMARK  107  A    between atoms: _259  and  _260
REMARK  108  A    between atoms: _259  and  _262
REMARK  109  A    between atoms: _262  and  _263
REMARK  110  A    between atoms: _268  and  _270
REMARK  111  A    between atoms: _270  and  _271
REMARK  112  A    between atoms: _270  and  _273
REMARK  113  A    between atoms: _273  and  _274
REMARK  114  A    between atoms: _274  and  _275
REMARK  115  A    between atoms: _275  and  _276
REMARK  116  A    between atoms: _285  and  _287
REMARK  117  A    between atoms: _287  and  _288
REMARK  118  A    between atoms: _287  and  _290
REMARK  119  A    between atoms: _290  and  _291
REMARK  120  A    between atoms: _294  and  _296
REMARK  121  A    between atoms: _296  and  _297
REMARK  122  A    between atoms: _296  and  _299
REMARK  123  A    between atoms: _299  and  _300
REMARK  124  A    between atoms: _303  and  _305
REMARK  125  A    between atoms: _305  and  _306
REMARK  126  A    between atoms: _305  and  _308
REMARK  127  A    between atoms: _308  and  _309
REMARK  128  A    between atoms: _312  and  _314
REMARK  129  A    between atoms: _314  and  _315
REMARK  130  A    between atoms: _314  and  _317
REMARK  131  A    between atoms: _317  and  _318
REMARK  132  A    between atoms: _321  and  _323
REMARK  133  A    between atoms: _323  and  _324
REMARK  134  A    between atoms: _326  and  _328
REMARK  135  A    between atoms: _328  and  _329
REMARK  136  A    between atoms: _332  and  _334
REMARK  137  A    between atoms: _334  and  _335
REMARK  138  A    between atoms: _334  and  _337
REMARK  139  A    between atoms: _337  and  _338
REMARK  140  A    between atoms: _341  and  _343
REMARK  141  A    between atoms: _343  and  _344
REMARK  142  A    between atoms: _343  and  _346
REMARK  143  A    between atoms: _346  and  _347
REMARK  144  A    between atoms: _350  and  _352
REMARK  145  A    between atoms: _352  and  _353
REMARK  146  A    between atoms: _352  and  _355
REMARK  147  A    between atoms: _355  and  _356
REMARK  148  A    between atoms: _359  and  _361
REMARK  149  A    between atoms: _361  and  _362
REMARK  150  A    between atoms: _361  and  _364
REMARK  151  A    between atoms: _367  and  _369
REMARK  152  A    between atoms: _369  and  _370
REMARK  153  A    between atoms: _369  and  _372
REMARK  154  A    between atoms: _372  and  _373
REMARK  155  A    between atoms: _373  and  _374
REMARK  156  A    between atoms: _376  and  _378
REMARK  157  A    between atoms: _378  and  _379
REMARK  158  A    between atoms: _378  and  _381
REMARK  159  A    between atoms: _381  and  _382
REMARK  160  A    between atoms: _385  and  _387
REMARK  161  A    between atoms: _387  and  _388
REMARK  162  A    between atoms: _390  and  _392
REMARK  163  A    between atoms: _392  and  _393
REMARK  164  A    between atoms: _395  and  _397
REMARK  165  A    between atoms: _397  and  _398
REMARK  166  A    between atoms: _397  and  _400
REMARK  167  A    between atoms: _400  and  _401
REMARK  168  A    between atoms: _404  and  _406
REMARK  169  A    between atoms: _406  and  _407
REMARK  170  A    between atoms: _409  and  _411
REMARK  171  A    between atoms: _411  and  _412
REMARK  172  A    between atoms: _414  and  _416
REMARK  173  A    between atoms: _416  and  _417
REMARK  174  A    between atoms: _416  and  _419
REMARK  175  A    between atoms: _419  and  _420
REMARK  176  A    between atoms: _426  and  _428
REMARK  177  A    between atoms: _428  and  _429
REMARK  178  A    between atoms: _428  and  _431
REMARK  179  A    between atoms: _431  and  _432
REMARK  180  A    between atoms: _435  and  _437
REMARK  181  A    between atoms: _437  and  _438
REMARK  182  A    between atoms: _437  and  _440
REMARK  183  A    between atoms: _443  and  _445
REMARK  184  A    between atoms: _445  and  _446
REMARK  185  A    between atoms: _445  and  _448
REMARK  186  A    between atoms: _448  and  _449
REMARK  187  A    between atoms: _452  and  _454
REMARK  188  A    between atoms: _454  and  _455
REMARK  189  A    between atoms: _454  and  _457
REMARK  190  A    between atoms: _457  and  _458
REMARK  191  A    between atoms: _462  and  _463
REMARK  192  A    between atoms: _468  and  _470
REMARK  193  A    between atoms: _470  and  _471
REMARK  194  A    between atoms: _470  and  _473
REMARK  195  A    between atoms: _473  and  _474
REMARK  196  A    between atoms: _477  and  _479
REMARK  197  A    between atoms: _479  and  _480
REMARK  198  A    between atoms: _479  and  _482
REMARK  199  A    between atoms: _482  and  _483
REMARK  200  A    between atoms: _488  and  _490
REMARK  201  A    between atoms: _490  and  _491
REMARK  202  A    between atoms: _490  and  _493
REMARK  203  A    between atoms: _496  and  _498
REMARK  204  A    between atoms: _498  and  _499
REMARK  205  A    between atoms: _498  and  _501
REMARK  206  A    between atoms: _501  and  _502
REMARK  207  A    between atoms: _505  and  _507
REMARK  208  A    between atoms: _507  and  _508
REMARK  209  A    between atoms: _510  and  _512
REMARK  210  A    between atoms: _512  and  _513
REMARK  211  A    between atoms: _512  and  _515
REMARK  212  A    between atoms: _515  and  _516
REMARK  213  A    between atoms: _516  and  _517
REMARK  214  A    between atoms: _517  and  _518
REMARK  215  A    between atoms: _527  and  _529
REMARK  216  A    between atoms: _529  and  _530
REMARK  217  A    between atoms: _529  and  _532
REMARK  218  A    between atoms: _532  and  _533
REMARK                            x       y       z     vdW  Elec       q    Type
REMARK                         _______ _______ _______ _____ _____    ______ ____
ROOT
ATOM      1  NE  ARG A   1     -18.257  14.408   5.872  0.00  0.00    -0.265 N 
ATOM      2  HE  ARG A   1     -18.291  14.745   6.855  0.00  0.00    +0.259 HD
ATOM      3  CZ  ARG A   1     -17.530  13.347   5.609  0.00  0.00    +0.342 C 
ATOM      4  NH2 ARG A   1     -16.883  12.757   6.609  0.00  0.00    -0.292 N 
ATOM      5 HH21 ARG A   1     -16.959  13.137   7.574  0.00  0.00    +0.255 HD
ATOM      6 HH22 ARG A   1     -16.300  11.915   6.427  0.00  0.00    +0.255 HD
ATOM      7  NH1 ARG A   1     -17.476  12.868   4.354  0.00  0.00    -0.292 N 
ATOM      8 HH11 ARG A   1     -16.901  12.028   4.142  0.00  0.00    +0.255 HD
ATOM      9 HH12 ARG A   1     -18.009  13.338   3.595  0.00  0.00    +0.255 HD
ENDROOT
BRANCH   1  10
ATOM     10  CD  ARG A   1     -19.014  15.138   4.879  0.00  0.00    +0.174 C 
BRANCH  10  11
ATOM     11  CG  ARG A   1     -19.247  16.505   5.373  0.00  0.00    +0.045 C 
BRANCH  11  12
ATOM     12  CB  ARG A   1     -20.371  17.185   4.665  0.00  0.00    +0.029 C 
BRANCH  12  13
ATOM     13  CA  ARG A   1     -20.456  18.627   5.058  0.00  0.00    +0.133 C 
BRANCH  13  14
ATOM     14  N   ARG A   1     -21.099  18.780   6.368  0.00  0.00    -0.239 NA
ATOM     15  H   ARG A   1     -21.346  17.944   6.934  0.00  0.00    +0.142 HD
ENDBRANCH  13  14
BRANCH  13  16
ATOM     16  C   ARG A   1     -21.240  19.353   4.007  0.00  0.00    +0.224 C 
ATOM     17  O   ARG A   1     -22.448  19.225   4.021  0.00  0.00    -0.287 OA
ENDBRANCH  13  16
ENDBRANCH  12  13
ENDBRANCH  11  12
ENDBRANCH  10  11
ENDBRANCH   1  10
TORSDOF 6
REMARK  Name = ../refined-set-2016/1izi/1izi_pocket.pdb
REMARK  218 active torsions:
REMARK  status: ('A' for Active; 'I' for Inactive)
REMARK    1  A    between atoms: _1  and  _3
REMARK    2  A    between atoms: _3  and  _4
REMARK    3  A    between atoms: _3  and  _6
REMARK    4  A    between atoms: _6  and  _7
REMARK    5  A    between atoms: _7  and  _8
REMARK    6  A    between atoms: _8  and  _9
REMARK    7  A    between atoms: _18  and  _20
REMARK    8  A    between atoms: _20  and  _21
REMARK    9  A    between atoms: _20  and  _23
REMARK   10  A    between atoms: _23  and  _24
REMARK   11  A    between atoms: _27  and  _29
REMARK   12  A    between atoms: _29  and  _30
REMARK   13  A    between atoms: _29  and  _32
REMARK   14  A    between atoms: _32  and  _33
REMARK   15  A    between atoms: _36  and  _38
REMARK   16  A    between atoms: _38  and  _39
REMARK   17  A    between atoms: _38  and  _41
REMARK   18  A    between atoms: _41  and  _42
REMARK   19  A    between atoms: _45  and  _47
REMARK   20  A    between atoms: _47  and  _48
REMARK   21  A    between atoms: _47  and  _50
REMARK   22  A    between atoms: _50  and  _51
REMARK   23  A    between atoms: _54  and  _56
REMARK   24  A    between atoms: _56  and  _57
REMARK   25  A    between atoms: _59  and  _61
REMARK   26  A    between atoms: _61  and  _62
REMARK   27  A    between atoms: _65  and  _67
REMARK   28  A    between atoms: _67  and  _68
REMARK   29  A    between atoms: _67  and  _70
REMARK   30  A    between atoms: _70  and  _71
REMARK   31  A    between atoms: _74  and  _76
REMARK   32  A    between atoms: _76  and  _77
REMARK   33  A    between atoms: _76  and  _79
REMARK   34  A    between atoms: _79  and  _80
REMARK   35  A    between atoms: _83  and  _85
REMARK   36  A    between atoms: _85  and  _86
REMARK   37  A    between atoms: _85  and  _88
REMARK   38  A    between atoms: _88  and  _89
REMARK   39  A    between atoms: _92  and  _94
REMARK   40  A    between atoms: _94  and  _95
REMARK   41  A    between atoms: _94  and  _97
REMARK   42  A    between atoms: _100  and  _102
REMARK   43  A    between atoms: _102  and  _103
REMARK   44  A    between atoms: _102  and  _105
REMARK   45  A    between atoms: _105  and  _106
REMARK   46  A    between atoms: _109  and  _111
REMARK   47  A    between atoms: _111  and  _112
REMARK   48  A    between atoms: _111  and  _114
REMARK   49  A    between atoms: _114  and  _115
REMARK   50  A    between atoms: _115  and  _116
REMARK   51  A    between atoms: _118  and  _120
REMARK   52  A    between atoms: _120  and  _121
REMARK   53  A    between atoms: _120  and  _123
REMARK   54  A    between atoms: _123  and  _124
REMARK   55  A    between atoms: _127  and  _129
REMARK   56  A    between atoms: _129  and  _130
REMARK   57  A    between atoms: _132  and  _134
REMARK   58  A    between atoms: _134  and  _135
REMARK   59  A    between atoms: _137  and  _139
REMARK   60  A    between atoms: _139  and  _140
REMARK   61  A    between atoms: _139  and  _142
REMARK   62  A    between atoms: _142  and  _143
REMARK   63  A    between atoms: _146  and  _148
REMARK   64  A    between atoms: _148  and  _149
REMARK   65  A    between atoms: _151  and  _153
REMARK   66  A    between atoms: _153  and  _154
REMARK   67  A    between atoms: _156  and  _158
REMARK   68  A    between atoms: _158  and  _159
REMARK   69  A    between atoms: _158  and  _161
REMARK   70  A    between atoms: _161  and  _162
REMARK   71  A    between atoms: _165  and  _167
REMARK   72  A    between atoms: _167  and  _168
REMARK   73  A    between atoms: _167  and  _170
REMARK   74  A    between atoms: _173  and  _175
REMARK   75  A    between atoms: _175  and  _176
REMARK   76  A    between atoms: _175  and  _178
REMARK   77  A    between atoms: _178  and  _179
REMARK   78  A    between atoms: _182  and  _184
REMARK   79  A    between atoms: _184  and  _185
REMARK   80  A    between atoms: _184  and  _187
REMARK   81  A    between atoms: _187  and  _188
REMARK   82  A    between atoms: _192  and  _193
REMARK   83  A    between atoms: _198  and  _200
REMARK   84  A    between atoms: _200  and  _201
REMARK   85  A    between atoms: _200  and  _203
REMARK   86  A    between atoms: _203  and  _204
REMARK   87  A    between atoms: _207  and  _209
REMARK   88  A    between atoms: _209  and  _210
REMARK   89  A    between atoms: _209  and  _212
REMARK   90  A    between atoms: _212  and  _213
REMARK   91  A    between atoms: _218  and  _220
REMARK   92  A    between atoms: _220  and  _221
REMARK   93  A    between atoms: _220  and  _223
REMARK   94  A    between atoms: _226  and  _228
REMARK   95  A    between atoms: _228  and  _229
REMARK   96  A    between atoms: _228  and  _231
REMARK   97  A    between atoms: _231  and  _232
REMARK   98  A    between atoms: _235  and  _237
REMARK   99  A    between atoms: _237  and  _238
REMARK  100  A    between atoms: _240  and  _242
REMARK  101  A    between atoms: _242  and  _243
REMARK  102  A    between atoms: _242  and  _245
REMARK  103  A    between atoms: _245  and  _246
REMARK  104  A    between atoms: _246  and  _247
REMARK  105  A    between atoms: _247  and  _248
REMARK  106  A    between atoms: _257  and  _259
REMARK  107  A    between atoms: _259  and  _260
REMARK  108  A    between atoms: _259  and  _262
REMARK  109  A    between atoms: _262  and  _263
REMARK  110  A    between atoms: _268  and  _270
REMARK  111  A    between atoms: _270  and  _271
REMARK  112  A    between atoms: _270  and  _273
REMARK  113  A    between atoms: _273  and  _274
REMARK  114  A    between atoms: _274  and  _275
REMARK  115  A    between atoms: _275  and  _276
REMARK  116  A    between atoms: _285  and  _287
REMARK  117  A    between atoms: _287  and  _288
REMARK  118  A    between atoms: _287  and  _290
REMARK  119  A    between atoms: _290  and  _291
REMARK  120  A    between atoms: _294  and  _296
REMARK  121  A    between atoms: _296  and  _297
REMARK  122  A    between atoms: _296  and  _299
REMARK  123  A    between atoms: _299  and  _300
REMARK  124  A    between atoms: _303  and  _305
REMARK  125  A    between atoms: _305  and  _306
REMARK  126  A    between atoms: _305  and  _308
REMARK  127  A    between atoms: _308  and  _309
REMARK  128  A    between atoms: _312  and  _314
REMARK  129  A    between atoms: _314  and  _315
REMARK  130  A    between atoms: _314  and  _317
REMARK  131  A    between atoms: _317  and  _318
REMARK  132  A    between atoms: _321  and  _323
REMARK  133  A    between atoms: _323  and  _324
REMARK  134  A    between atoms: _326  and  _328
REMARK  135  A    between atoms: _328  and  _329
REMARK  136  A    between atoms: _332  and  _334
REMARK  137  A    between atoms: _334  and  _335
REMARK  138  A    between atoms: _334  and  _337
REMARK  139  A    between atoms: _337  and  _338
REMARK  140  A    between atoms: _341  and  _343
REMARK  141  A    between atoms: _343  and  _344
REMARK  142  A    between atoms: _343  and  _346
REMARK  143  A    between atoms: _346  and  _347
REMARK  144  A    between atoms: _350  and  _352
REMARK  145  A    between atoms: _352  and  _353
REMARK  146  A    between atoms: _352  and  _355
REMARK  147  A    between atoms: _355  and  _356
REMARK  148  A    between atoms: _359  and  _361
REMARK  149  A    between atoms: _361  and  _362
REMARK  150  A    between atoms: _361  and  _364
REMARK  151  A    between atoms: _367  and  _369
REMARK  152  A    between atoms: _369  and  _370
REMARK  153  A    between atoms: _369  and  _372
REMARK  154  A    between atoms: _372  and  _373
REMARK  155  A    between atoms: _373  and  _374
REMARK  156  A    between atoms: _376  and  _378
REMARK  157  A    between atoms: _378  and  _379
REMARK  158  A    between atoms: _378  and  _381
REMARK  159  A    between atoms: _381  and  _382
REMARK  160  A    between atoms: _385  and  _387
REMARK  161  A    between atoms: _387  and  _388
REMARK  162  A    between atoms: _390  and  _392
REMARK  163  A    between atoms: _392  and  _393
REMARK  164  A    between atoms: _395  and  _397
REMARK  165  A    between atoms: _397  and  _398
REMARK  166  A    between atoms: _397  and  _400
REMARK  167  A    between atoms: _400  and  _401
REMARK  168  A    between atoms: _404  and  _406
REMARK  169  A    between atoms: _406  and  _407
REMARK  170  A    between atoms: _409  and  _411
REMARK  171  A    between atoms: _411  and  _412
REMARK  172  A    between atoms: _414  and  _416
REMARK  173  A    between atoms: _416  and  _417
REMARK  174  A    between atoms: _416  and  _419
REMARK  175  A    between atoms: _419  and  _420
REMARK  176  A    between atoms: _426  and  _428
REMARK  177  A    between atoms: _428  and  _429
REMARK  178  A    between atoms: _428  and  _431
REMARK  179  A    between atoms: _431  and  _432
REMARK  180  A    between atoms: _435  and  _437
REMARK  181  A    between atoms: _437  and  _438
REMARK  182  A    between atoms: _437  and  _440
REMARK  183  A    between atoms: _443  and  _445
REMARK  184  A    between atoms: _445  and  _446
REMARK  185  A    between atoms: _445  and  _448
REMARK  186  A    between atoms: _448  and  _449
REMARK  187  A    between atoms: _452  and  _454
REMARK  188  A    between atoms: _454  and  _455
REMARK  189  A    between atoms: _454  and  _457
REMARK  190  A    between atoms: _457  and  _458
REMARK  191  A    between atoms: _462  and  _463
REMARK  192  A    between atoms: _468  and  _470
REMARK  193  A    between atoms: _470  and  _471
REMARK  194  A    between atoms: _470  and  _473
REMARK  195  A    between atoms: _473  and  _474
REMARK  196  A    between atoms: _477  and  _479
REMARK  197  A    between atoms: _479  and  _480
REMARK  198  A    between atoms: _479  and  _482
REMARK  199  A    between atoms: _482  and  _483
REMARK  200  A    between atoms: _488  and  _490
REMARK  201  A    between atoms: _490  and  _491
REMARK  202  A    between atoms: _490  and  _493
REMARK  203  A    between atoms: _496  and  _498
REMARK  204  A    between atoms: _498  and  _499
REMARK  205  A    between atoms: _498  and  _501
REMARK  206  A    between atoms: _501  and  _502
REMARK  207  A    between atoms: _505  and  _507
REMARK  208  A    between atoms: _507  and  _508
REMARK  209  A    between atoms: _510  and  _512
REMARK  210  A    between atoms: _512  and  _513
REMARK  211  A    between atoms: _512  and  _515
REMARK  212  A    between atoms: _515  and  _516
REMARK  213  A    between atoms: _516  and  _517
REMARK  214  A    between atoms: _517  and  _518
REMARK  215  A    between atoms: _527  and  _529
REMARK  216  A    between atoms: _529  and  _530
REMARK  217  A    between atoms: _529  and  _532
REMARK  218  A    between atoms: _532  and  _533
REMARK                            x       y       z     vdW  Elec       q    Type
REMARK                         _______ _______ _______ _____ _____    ______ ____
ROOT
ATOM      1  C   GLY A   5      -9.086  20.411  -2.774  0.00  0.00    +0.243 C 
ATOM      2  O   GLY A   5      -8.034  19.805  -2.784  0.00  0.00    -0.273 OA
ATOM      3  N   ALA A   6     -10.029  20.219  -3.708  0.00  0.00    -0.297 N 
ATOM      4  H   ALA A   6     -10.918  20.751  -3.620  0.00  0.00    +0.150 HD
ENDROOT
BRANCH   3   5
ATOM      5  CA  ALA A   6      -9.886  19.308  -4.843  0.00  0.00    +0.149 C 
ATOM      6  CB  ALA A   6     -11.183  18.361  -4.952  0.00  0.00    +0.031 C 
BRANCH   5   7
ATOM      7  C   ALA A   6      -9.725  20.127  -6.108  0.00  0.00    +0.241 C 
ATOM      8  O   ALA A   6     -10.578  20.994  -6.425  0.00  0.00    -0.273 OA
ATOM      9  N   ASP A   7      -8.590  19.987  -6.785  0.00  0.00    -0.297 N 
ATOM     10  H   ASP A   7      -7.832  19.381  -6.411  0.00  0.00    +0.150 HD
BRANCH   9  11
ATOM     11  CA  ASP A   7      -8.407  20.691  -8.067  0.00  0.00    +0.160 C 
BRANCH  11  12
ATOM     12  C   ASP A   7      -9.443  20.136  -9.051  0.00  0.00    +0.241 C 
ATOM     13  N   ASP A   8      -9.697  18.844  -8.950  0.00  0.00    -0.297 N 
ATOM     14  H   ASP A   8      -9.246  18.325  -8.170  0.00  0.00    +0.150 HD
ATOM     15  O   ASP A   7      -9.966  20.862  -9.863  0.00  0.00    -0.273 OA
BRANCH  13  16
ATOM     16  CA  ASP A   8     -10.566  18.088  -9.854  0.00  0.00    +0.160 C 
BRANCH  16  17
ATOM     17  C   ASP A   8     -11.847  17.533  -9.232  0.00  0.00    +0.241 C 
ATOM     18  O   ASP A   8     -12.058  17.532  -7.998  0.00  0.00    -0.273 OA
ATOM     19  N   THR A   9     -12.709  17.121 -10.147  0.00  0.00    -0.295 N 
ATOM     20  H   THR A   9     -12.463  17.241 -11.150  0.00  0.00    +0.150 HD
BRANCH  19  21
ATOM     21  CA  THR A   9     -13.959  16.520  -9.820  0.00  0.00    +0.176 C 
BRANCH  21  22
ATOM     22  C   THR A   9     -13.851  14.983  -9.942  0.00  0.00    +0.243 C 
ATOM     23  N   VAL A  10     -14.118  14.302  -8.850  0.00  0.00    -0.298 N 
ATOM     24  H   VAL A  10     -14.472  14.794  -8.005  0.00  0.00    +0.150 HD
ATOM     25  O   THR A   9     -13.497  14.437 -11.012  0.00  0.00    -0.273 OA
BRANCH  23  26
ATOM     26  CA  VAL A  10     -13.923  12.886  -8.823  0.00  0.00    +0.137 C 
BRANCH  26  27
ATOM     27  CB  VAL A  10     -12.728  12.442  -7.898  0.00  0.00    +0.026 C 
ATOM     28  CG2 VAL A  10     -11.578  13.379  -8.066  0.00  0.00    +0.002 C 
ATOM     29  CG1 VAL A  10     -12.351  10.963  -8.193  0.00  0.00    +0.002 C 
ENDBRANCH  26  27
BRANCH  26  30
ATOM     30  C   VAL A  10     -15.167  12.210  -8.300  0.00  0.00    +0.227 C 
ATOM     31  O   VAL A  10     -15.600  12.488  -7.207  0.00  0.00    -0.286 OA
ENDBRANCH  26  30
ENDBRANCH  23  26
ENDBRANCH  21  22
BRANCH  21  32
ATOM     32  CB  THR A   9     -14.971  17.107 -10.699  0.00  0.00    +0.137 C 
ATOM     33  CG2 THR A   9     -16.324  16.318 -10.525  0.00  0.00    +0.034 C 
BRANCH  32  34
ATOM     34  OG1 THR A   9     -15.222  18.419 -10.208  0.00  0.00    -0.382 OA
ATOM     35  HG1 THR A   9     -14.384  18.945 -10.232  0.00  0.00    +0.210 HD
ENDBRANCH  32  34
ENDBRANCH  21  32
ENDBRANCH  19  21
ENDBRANCH  16  17
BRANCH  16  36
ATOM     36  CB  ASP A   8      -9.759  16.896 -10.361  0.00  0.00    +0.143 C 
BRANCH  36  37
ATOM     37  CG  ASP A   8      -8.498  17.334 -11.066  0.00  0.00    +0.367 C 
ATOM     38  OD2 ASP A   8      -7.411  16.866 -10.693  0.00  0.00    -0.246 OA
ATOM     39  OD1 ASP A   8      -8.517  18.203 -11.960  0.00  0.00    -0.246 OA
ENDBRANCH  36  37
ENDBRANCH  16  36
ENDBRANCH  13  16
ENDBRANCH  11  12
BRANCH  11  40
ATOM     40  CB  ASP A   7      -7.020  20.386  -8.639  0.00  0.00    +0.143 C 
BRANCH  40  41
ATOM     41  CG  ASP A   7      -5.892  20.886  -7.720  0.00  0.00    +0.367 C 
ATOM     42  OD2 ASP A   7      -6.034  21.851  -6.903  0.00  0.00    -0.246 OA
ATOM     43  OD1 ASP A   7      -4.806  20.277  -7.759  0.00  0.00    -0.246 OA
ENDBRANCH  40  41
ENDBRANCH  11  40
ENDBRANCH   9  11
ENDBRANCH   5   7
ENDBRANCH   3   5
BRANCH   1  44
ATOM     44  CA  GLY A   5      -9.436  21.353  -1.599  0.00  0.00    +0.176 C 
BRANCH  44  46
ATOM     45  C   THR A   4     -10.991  23.084  -2.363  0.00  0.00    +0.243 C 
ATOM     46  N   GLY A   5     -10.725  22.038  -1.583  0.00  0.00    -0.295 N 
ATOM     47  H   GLY A   5     -11.465  21.696  -0.937  0.00  0.00    +0.150 HD
ATOM     48  O   THR A   4     -10.118  23.663  -2.998  0.00  0.00    -0.273 OA
BRANCH  45  49
ATOM     49  CA  THR A   4     -12.397  23.634  -2.365  0.00  0.00    +0.176 C 
BRANCH  49  51
ATOM     50  C   ASP A   3     -13.582  21.491  -2.633  0.00  0.00    +0.241 C 
ATOM     51  N   THR A   4     -13.396  22.629  -1.929  0.00  0.00    -0.295 N 
ATOM     52  H   THR A   4     -13.960  22.802  -1.072  0.00  0.00    +0.150 HD
ATOM     53  O   ASP A   3     -12.953  21.232  -3.665  0.00  0.00    -0.273 OA
BRANCH  50  54
ATOM     54  CA  ASP A   3     -14.663  20.533  -2.112  0.00  0.00    +0.160 C 
BRANCH  54  57
ATOM     55  C   LEU A   2     -17.000  20.967  -1.971  0.00  0.00    +0.241 C 
ATOM     56  O   LEU A   2     -16.901  21.265  -0.769  0.00  0.00    -0.273 OA
ATOM     57  N   ASP A   3     -15.954  20.716  -2.727  0.00  0.00    -0.297 N 
ATOM     58  H   ASP A   3     -16.057  20.650  -3.760  0.00  0.00    +0.150 HD
BRANCH  55  59
ATOM     59  CA  LEU A   2     -18.368  20.863  -2.681  0.00  0.00    +0.149 C 
BRANCH  59  61
ATOM     60  C   LEU A   1     -18.604  18.489  -2.439  0.00  0.00    +0.238 C 
ATOM     61  N   LEU A   2     -19.013  19.705  -2.104  0.00  0.00    -0.297 N 
ATOM     62  H   LEU A   2     -19.795  19.825  -1.429  0.00  0.00    +0.150 HD
ATOM     63  O   LEU A   1     -17.752  18.283  -3.344  0.00  0.00    -0.274 OA
BRANCH  60  64
ATOM     64  CA  LEU A   1     -19.238  17.318  -1.683  0.00  0.00    +0.145 C 
BRANCH  64  65
ATOM     65  N   LEU A   1     -19.806  16.348  -2.613  0.00  0.00    -0.238 NA
ATOM     66  H   LEU A   1     -19.182  15.591  -2.959  0.00  0.00    +0.142 HD
ENDBRANCH  64  65
BRANCH  64  67
ATOM     67  CB  LEU A   1     -18.156  16.582  -0.895  0.00  0.00    +0.026 C 
BRANCH  67  68
ATOM     68  CG  LEU A   1     -17.469  17.078   0.374  0.00  0.00    +0.002 C 
ATOM     69  CD2 LEU A   1     -18.469  17.430   1.383  0.00  0.00    +0.000 C 
ATOM     70  CD1 LEU A   1     -16.543  16.052   1.007  0.00  0.00    +0.000 C 
ENDBRANCH  67  68
ENDBRANCH  64  67
ENDBRANCH  60  64
ENDBRANCH  59  61
BRANCH  59  71
ATOM     71  CB  LEU A   2     -19.204  22.073  -2.445  0.00  0.00    +0.029 C 
BRANCH  71  72
ATOM     72  CG  LEU A   2     -20.547  22.104  -3.188  0.00  0.00    +0.002 C 
ATOM     73  CD2 LEU A   2     -21.203  23.351  -2.852  0.00  0.00    +0.000 C 
ATOM     74  CD1 LEU A   2     -20.434  21.981  -4.708  0.00  0.00    +0.000 C 
ENDBRANCH  71  72
ENDBRANCH  59  71
ENDBRANCH  55  59
ENDBRANCH  54  57
BRANCH  54  75
ATOM     75  CB  ASP A   3     -14.268  19.102  -2.291  0.00  0.00    +0.143 C 
BRANCH  75  76
ATOM     76  CG  ASP A   3     -12.933  18.789  -1.593  0.00  0.00    +0.367 C 
ATOM     77  OD2 ASP A   3     -12.271  19.626  -0.935  0.00  0.00    -0.246 OA
ATOM     78  OD1 ASP A   3     -12.517  17.630  -1.691  0.00  0.00    -0.246 OA
ENDBRANCH  75  76
ENDBRANCH  54  75
ENDBRANCH  50  54
ENDBRANCH  49  51
BRANCH  49  79
ATOM     79  CB  THR A   4     -12.427  24.907  -1.536  0.00  0.00    +0.137 C 
ATOM     80  CG2 THR A   4     -13.737  25.636  -1.638  0.00  0.00    +0.034 C 
BRANCH  79  81
ATOM     81  OG1 THR A   4     -12.312  24.623  -0.133  0.00  0.00    -0.382 OA
ATOM     82  HG1 THR A   4     -11.456  24.156   0.039  0.00  0.00    +0.210 HD
ENDBRANCH  79  81
ENDBRANCH  49  79
ENDBRANCH  45  49
ENDBRANCH  44  46
ENDBRANCH   1  44
TORSDOF 35
REMARK  Name = ../refined-set-2016/1izi/1izi_pocket.pdb
REMARK  218 active torsions:
REMARK  status: ('A' for Active; 'I' for Inactive)
REMARK    1  A    between atoms: _1  and  _3
REMARK    2  A    between atoms: _3  and  _4
REMARK    3  A    between atoms: _3  and  _6
REMARK    4  A    between atoms: _6  and  _7
REMARK    5  A    between atoms: _7  and  _8
REMARK    6  A    between atoms: _8  and  _9
REMARK    7  A    between atoms: _18  and  _20
REMARK    8  A    between atoms: _20  and  _21
REMARK    9  A    between atoms: _20  and  _23
REMARK   10  A    between atoms: _23  and  _24
REMARK   11  A    between atoms: _27  and  _29
REMARK   12  A    between atoms: _29  and  _30
REMARK   13  A    between atoms: _29  and  _32
REMARK   14  A    between atoms: _32  and  _33
REMARK   15  A    between atoms: _36  and  _38
REMARK   16  A    between atoms: _38  and  _39
REMARK   17  A    between atoms: _38  and  _41
REMARK   18  A    between atoms: _41  and  _42
REMARK   19  A    between atoms: _45  and  _47
REMARK   20  A    between atoms: _47  and  _48
REMARK   21  A    between atoms: _47  and  _50
REMARK   22  A    between atoms: _50  and  _51
REMARK   23  A    between atoms: _54  and  _56
REMARK   24  A    between atoms: _56  and  _57
REMARK   25  A    between atoms: _59  and  _61
REMARK   26  A    between atoms: _61  and  _62
REMARK   27  A    between atoms: _65  and  _67
REMARK   28  A    between atoms: _67  and  _68
REMARK   29  A    between atoms: _67  and  _70
REMARK   30  A    between atoms: _70  and  _71
REMARK   31  A    between atoms: _74  and  _76
REMARK   32  A    between atoms: _76  and  _77
REMARK   33  A    between atoms: _76  and  _79
REMARK   34  A    between atoms: _79  and  _80
REMARK   35  A    between atoms: _83  and  _85
REMARK   36  A    between atoms: _85  and  _86
REMARK   37  A    between atoms: _85  and  _88
REMARK   38  A    between atoms: _88  and  _89
REMARK   39  A    between atoms: _92  and  _94
REMARK   40  A    between atoms: _94  and  _95
REMARK   41  A    between atoms: _94  and  _97
REMARK   42  A    between atoms: _100  and  _102
REMARK   43  A    between atoms: _102  and  _103
REMARK   44  A    between atoms: _102  and  _105
REMARK   45  A    between atoms: _105  and  _106
REMARK   46  A    between atoms: _109  and  _111
REMARK   47  A    between atoms: _111  and  _112
REMARK   48  A    between atoms: _111  and  _114
REMARK   49  A    between atoms: _114  and  _115
REMARK   50  A    between atoms: _115  and  _116
REMARK   51  A    between atoms: _118  and  _120
REMARK   52  A    between atoms: _120  and  _121
REMARK   53  A    between atoms: _120  and  _123
REMARK   54  A    between atoms: _123  and  _124
REMARK   55  A    between atoms: _127  and  _129
REMARK   56  A    between atoms: _129  and  _130
REMARK   57  A    between atoms: _132  and  _134
REMARK   58  A    between atoms: _134  and  _135
REMARK   59  A    between atoms: _137  and  _139
REMARK   60  A    between atoms: _139  and  _140
REMARK   61  A    between atoms: _139  and  _142
REMARK   62  A    between atoms: _142  and  _143
REMARK   63  A    between atoms: _146  and  _148
REMARK   64  A    between atoms: _148  and  _149
REMARK   65  A    between atoms: _151  and  _153
REMARK   66  A    between atoms: _153  and  _154
REMARK   67  A    between atoms: _156  and  _158
REMARK   68  A    between atoms: _158  and  _159
REMARK   69  A    between atoms: _158  and  _161
REMARK   70  A    between atoms: _161  and  _162
REMARK   71  A    between atoms: _165  and  _167
REMARK   72  A    between atoms: _167  and  _168
REMARK   73  A    between atoms: _167  and  _170
REMARK   74  A    between atoms: _173  and  _175
REMARK   75  A    between atoms: _175  and  _176
REMARK   76  A    between atoms: _175  and  _178
REMARK   77  A    between atoms: _178  and  _179
REMARK   78  A    between atoms: _182  and  _184
REMARK   79  A    between atoms: _184  and  _185
REMARK   80  A    between atoms: _184  and  _187
REMARK   81  A    between atoms: _187  and  _188
REMARK   82  A    between atoms: _192  and  _193
REMARK   83  A    between atoms: _198  and  _200
REMARK   84  A    between atoms: _200  and  _201
REMARK   85  A    between atoms: _200  and  _203
REMARK   86  A    between atoms: _203  and  _204
REMARK   87  A    between atoms: _207  and  _209
REMARK   88  A    between atoms: _209  and  _210
REMARK   89  A    between atoms: _209  and  _212
REMARK   90  A    between atoms: _212  and  _213
REMARK   91  A    between atoms: _218  and  _220
REMARK   92  A    between atoms: _220  and  _221
REMARK   93  A    between atoms: _220  and  _223
REMARK   94  A    between atoms: _226  and  _228
REMARK   95  A    between atoms: _228  and  _229
REMARK   96  A    between atoms: _228  and  _231
REMARK   97  A    between atoms: _231  and  _232
REMARK   98  A    between atoms: _235  and  _237
REMARK   99  A    between atoms: _237  and  _238
REMARK  100  A    between atoms: _240  and  _242
REMARK  101  A    between atoms: _242  and  _243
REMARK  102  A    between atoms: _242  and  _245
REMARK  103  A    between atoms: _245  and  _246
REMARK  104  A    between atoms: _246  and  _247
REMARK  105  A    between atoms: _247  and  _248
REMARK  106  A    between atoms: _257  and  _259
REMARK  107  A    between atoms: _259  and  _260
REMARK  108  A    between atoms: _259  and  _262
REMARK  109  A    between atoms: _262  and  _263
REMARK  110  A    between atoms: _268  and  _270
REMARK  111  A    between atoms: _270  and  _271
REMARK  112  A    between atoms: _270  and  _273
REMARK  113  A    between atoms: _273  and  _274
REMARK  114  A    between atoms: _274  and  _275
REMARK  115  A    between atoms: _275  and  _276
REMARK  116  A    between atoms: _285  and  _287
REMARK  117  A    between atoms: _287  and  _288
REMARK  118  A    between atoms: _287  and  _290
REMARK  119  A    between atoms: _290  and  _291
REMARK  120  A    between atoms: _294  and  _296
REMARK  121  A    between atoms: _296  and  _297
REMARK  122  A    between atoms: _296  and  _299
REMARK  123  A    between atoms: _299  and  _300
REMARK  124  A    between atoms: _303  and  _305
REMARK  125  A    between atoms: _305  and  _306
REMARK  126  A    between atoms: _305  and  _308
REMARK  127  A    between atoms: _308  and  _309
REMARK  128  A    between atoms: _312  and  _314
REMARK  129  A    between atoms: _314  and  _315
REMARK  130  A    between atoms: _314  and  _317
REMARK  131  A    between atoms: _317  and  _318
REMARK  132  A    between atoms: _321  and  _323
REMARK  133  A    between atoms: _323  and  _324
REMARK  134  A    between atoms: _326  and  _328
REMARK  135  A    between atoms: _328  and  _329
REMARK  136  A    between atoms: _332  and  _334
REMARK  137  A    between atoms: _334  and  _335
REMARK  138  A    between atoms: _334  and  _337
REMARK  139  A    between atoms: _337  and  _338
REMARK  140  A    between atoms: _341  and  _343
REMARK  141  A    between atoms: _343  and  _344
REMARK  142  A    between atoms: _343  and  _346
REMARK  143  A    between atoms: _346  and  _347
REMARK  144  A    between atoms: _350  and  _352
REMARK  145  A    between atoms: _352  and  _353
REMARK  146  A    between atoms: _352  and  _355
REMARK  147  A    between atoms: _355  and  _356
REMARK  148  A    between atoms: _359  and  _361
REMARK  149  A    between atoms: _361  and  _362
REMARK  150  A    between atoms: _361  and  _364
REMARK  151  A    between atoms: _367  and  _369
REMARK  152  A    between atoms: _369  and  _370
REMARK  153  A    between atoms: _369  and  _372
REMARK  154  A    between atoms: _372  and  _373
REMARK  155  A    between atoms: _373  and  _374
REMARK  156  A    between atoms: _376  and  _378
REMARK  157  A    between atoms: _378  and  _379
REMARK  158  A    between atoms: _378  and  _381
REMARK  159  A    between atoms: _381  and  _382
REMARK  160  A    between atoms: _385  and  _387
REMARK  161  A    between atoms: _387  and  _388
REMARK  162  A    between atoms: _390  and  _392
REMARK  163  A    between atoms: _392  and  _393
REMARK  164  A    between atoms: _395  and  _397
REMARK  165  A    between atoms: _397  and  _398
REMARK  166  A    between atoms: _397  and  _400
REMARK  167  A    between atoms: _400  and  _401
REMARK  168  A    between atoms: _404  and  _406
REMARK  169  A    between atoms: _406  and  _407
REMARK  170  A    between atoms: _409  and  _411
REMARK  171  A    between atoms: _411  and  _412
REMARK  172  A    between atoms: _414  and  _416
REMARK  173  A    between atoms: _416  and  _417
REMARK  174  A    between atoms: _416  and  _419
REMARK  175  A    between atoms: _419  and  _420
REMARK  176  A    between atoms: _426  and  _428
REMARK  177  A    between atoms: _428  and  _429
REMARK  178  A    between atoms: _428  and  _431
REMARK  179  A    between atoms: _431  and  _432
REMARK  180  A    between atoms: _435  and  _437
REMARK  181  A    between atoms: _437  and  _438
REMARK  182  A    between atoms: _437  and  _440
REMARK  183  A    between atoms: _443  and  _445
REMARK  184  A    between atoms: _445  and  _446
REMARK  185  A    between atoms: _445  and  _448
REMARK  186  A    between atoms: _448  and  _449
REMARK  187  A    between atoms: _452  and  _454
REMARK  188  A    between atoms: _454  and  _455
REMARK  189  A    between atoms: _454  and  _457
REMARK  190  A    between atoms: _457  and  _458
REMARK  191  A    between atoms: _462  and  _463
REMARK  192  A    between atoms: _468  and  _470
REMARK  193  A    between atoms: _470  and  _471
REMARK  194  A    between atoms: _470  and  _473
REMARK  195  A    between atoms: _473  and  _474
REMARK  196  A    between atoms: _477  and  _479
REMARK  197  A    between atoms: _479  and  _480
REMARK  198  A    between atoms: _479  and  _482
REMARK  199  A    between atoms: _482  and  _483
REMARK  200  A    between atoms: _488  and  _490
REMARK  201  A    between atoms: _490  and  _491
REMARK  202  A    between atoms: _490  and  _493
REMARK  203  A    between atoms: _496  and  _498
REMARK  204  A    between atoms: _498  and  _499
REMARK  205  A    between atoms: _498  and  _501
REMARK  206  A    between atoms: _501  and  _502
REMARK  207  A    between atoms: _505  and  _507
REMARK  208  A    between atoms: _507  and  _508
REMARK  209  A    between atoms: _510  and  _512
REMARK  210  A    between atoms: _512  and  _513
REMARK  211  A    between atoms: _512  and  _515
REMARK  212  A    between atoms: _515  and  _516
REMARK  213  A    between atoms: _516  and  _517
REMARK  214  A    between atoms: _517  and  _518
REMARK  215  A    between atoms: _527  and  _529
REMARK  216  A    between atoms: _529  and  _530
REMARK  217  A    between atoms: _529  and  _532
REMARK  218  A    between atoms: _532  and  _533
REMARK                            x       y       z     vdW  Elec       q    Type
REMARK                         _______ _______ _______ _____ _____    ______ ____
ROOT
ATOM      1  CA  ILE A   5      -4.131  12.366   1.771  0.00  0.00    +0.149 C 
ENDROOT
BRANCH   1   3
ATOM      2  C   GLY A   4      -4.093  12.515  -0.642  0.00  0.00    +0.243 C 
ATOM      3  N   ILE A   5      -4.730  12.683   0.503  0.00  0.00    -0.297 N 
ATOM      4  H   ILE A   5      -5.700  13.058   0.487  0.00  0.00    +0.150 HD
ATOM      5  O   GLY A   4      -3.017  11.935  -0.756  0.00  0.00    -0.273 OA
BRANCH   2   6
ATOM      6  CA  GLY A   4      -4.807  12.993  -1.846  0.00  0.00    +0.176 C 
BRANCH   6   8
ATOM      7  C   GLY A   3      -4.348  12.670  -4.195  0.00  0.00    +0.243 C 
ATOM      8  N   GLY A   4      -4.265  12.245  -2.953  0.00  0.00    -0.295 N 
ATOM      9  H   GLY A   4      -3.792  11.338  -2.763  0.00  0.00    +0.150 HD
ATOM     10  O   GLY A   3      -4.970  13.694  -4.523  0.00  0.00    -0.273 OA
BRANCH   7  11
ATOM     11  CA  GLY A   3      -3.599  11.796  -5.174  0.00  0.00    +0.176 C 
BRANCH  11  13
ATOM     12  C   ILE A   2      -4.290  11.026  -7.322  0.00  0.00    +0.241 C 
ATOM     13  N   GLY A   3      -3.941  12.043  -6.557  0.00  0.00    -0.295 N 
ATOM     14  H   GLY A   3      -3.912  13.008  -6.943  0.00  0.00    +0.150 HD
ATOM     15  O   ILE A   2      -4.439   9.874  -6.910  0.00  0.00    -0.273 OA
BRANCH  12  16
ATOM     16  CA  ILE A   2      -4.636  11.381  -8.714  0.00  0.00    +0.148 C 
BRANCH  16  18
ATOM     17  C   MET A   1      -4.020  10.226 -10.735  0.00  0.00    +0.238 C 
ATOM     18  N   ILE A   2      -4.520  10.177  -9.518  0.00  0.00    -0.297 N 
ATOM     19  H   ILE A   2      -4.835   9.266  -9.128  0.00  0.00    +0.150 HD
ATOM     20  O   MET A   1      -3.715  11.264 -11.294  0.00  0.00    -0.274 OA
BRANCH  17  21
ATOM     21  CA  MET A   1      -3.859   8.924 -11.429  0.00  0.00    +0.146 C 
BRANCH  21  22
ATOM     22  N   MET A   1      -4.013   9.201 -12.846  0.00  0.00    -0.238 NA
ATOM     23  H   MET A   1      -3.421   9.935 -13.286  0.00  0.00    +0.142 HD
ENDBRANCH  21  22
BRANCH  21  24
ATOM     24  CB  MET A   1      -2.478   8.391 -11.124  0.00  0.00    +0.038 C 
BRANCH  24  25
ATOM     25  CG  MET A   1      -2.108   7.212 -11.991  0.00  0.00    +0.060 C 
BRANCH  25  26
ATOM     26  SD  MET A   1      -1.855   5.768 -10.977  0.00  0.00    -0.139 S 
ATOM     27  CE  MET A   1      -0.514   4.980 -12.040  0.00  0.00    +0.069 C 
ENDBRANCH  25  26
ENDBRANCH  24  25
ENDBRANCH  21  24
ENDBRANCH  17  21
ENDBRANCH  16  18
BRANCH  16  28
ATOM     28  CB  ILE A   2      -6.058  11.908  -8.663  0.00  0.00    +0.027 C 
ATOM     29  CG2 ILE A   2      -6.386  12.557  -9.950  0.00  0.00    +0.002 C 
BRANCH  28  30
ATOM     30  CG1 ILE A   2      -7.010  10.762  -8.264  0.00  0.00    +0.002 C 
ATOM     31  CD1 ILE A   2      -8.388  11.201  -7.873  0.00  0.00    +0.000 C 
ENDBRANCH  28  30
ENDBRANCH  16  28
ENDBRANCH  12  16
ENDBRANCH  11  13
ENDBRANCH   7  11
ENDBRANCH   6   8
ENDBRANCH   2   6
ENDBRANCH   1   3
BRANCH   1  32
ATOM     32  C   ILE A   5      -3.442  11.025   1.878  0.00  0.00    +0.241 C 
ATOM     33  O   ILE A   5      -2.265  10.957   2.291  0.00  0.00    -0.273 OA
ATOM     34  N   GLY A   6      -4.111   9.940   1.524  0.00  0.00    -0.295 N 
ATOM     35  H   GLY A   6      -5.065  10.005   1.115  0.00  0.00    +0.150 HD
BRANCH  34  36
ATOM     36  CA  GLY A   6      -3.467   8.656   1.726  0.00  0.00    +0.176 C 
BRANCH  36  37
ATOM     37  C   GLY A   6      -2.770   8.020   0.540  0.00  0.00    +0.243 C 
ATOM     38  O   GLY A   6      -2.442   6.853   0.583  0.00  0.00    -0.273 OA
ATOM     39  N   GLY A   7      -2.546   8.740  -0.529  0.00  0.00    -0.295 N 
ATOM     40  H   GLY A   7      -2.820   9.743  -0.561  0.00  0.00    +0.150 HD
BRANCH  39  41
ATOM     41  CA  GLY A   7      -1.914   8.116  -1.657  0.00  0.00    +0.176 C 
BRANCH  41  42
ATOM     42  C   GLY A   7      -2.623   8.405  -2.955  0.00  0.00    +0.243 C 
ATOM     43  O   GLY A   7      -3.226   9.474  -3.105  0.00  0.00    -0.273 OA
ATOM     44  N   PHE A   8      -2.573   7.459  -3.885  0.00  0.00    -0.297 N 
ATOM     45  H   PHE A   8      -2.118   6.548  -3.674  0.00  0.00    +0.150 HD
BRANCH  44  46
ATOM     46  CA  PHE A   8      -3.150   7.692  -5.192  0.00  0.00    +0.153 C 
BRANCH  46  47
ATOM     47  C   PHE A   8      -4.169   6.681  -5.656  0.00  0.00    +0.241 C 
ATOM     48  O   PHE A   8      -4.306   5.625  -5.097  0.00  0.00    -0.273 OA
ATOM     49  N   ILE A   9      -4.927   7.036  -6.679  0.00  0.00    -0.298 N 
ATOM     50  H   ILE A   9      -4.887   8.007  -7.050  0.00  0.00    +0.150 HD
BRANCH  49  51
ATOM     51  CA  ILE A   9      -5.826   6.047  -7.287  0.00  0.00    +0.137 C 
BRANCH  51  52
ATOM     52  CB  ILE A   9      -7.281   6.132  -6.811  0.00  0.00    +0.026 C 
ATOM     53  CG2 ILE A   9      -7.365   5.797  -5.335  0.00  0.00    +0.002 C 
BRANCH  52  54
ATOM     54  CG1 ILE A   9      -7.899   7.503  -7.153  0.00  0.00    +0.002 C 
ATOM     55  CD1 ILE A   9      -9.317   7.595  -6.708  0.00  0.00    +0.000 C 
ENDBRANCH  52  54
ENDBRANCH  51  52
BRANCH  51  56
ATOM     56  C   ILE A   9      -5.821   6.286  -8.733  0.00  0.00    +0.227 C 
ATOM     57  O   ILE A   9      -5.532   7.392  -9.170  0.00  0.00    -0.286 OA
ENDBRANCH  51  56
ENDBRANCH  49  51
ENDBRANCH  46  47
BRANCH  46  58
ATOM     58  CB  PHE A   8      -2.036   7.704  -6.222  0.00  0.00    +0.055 C 
BRANCH  58  59
ATOM     59  CG  PHE A   8      -1.419   6.355  -6.483  0.00  0.00    -0.020 A 
ATOM     60  CD2 PHE A   8      -0.470   5.835  -5.617  0.00  0.00    -0.004 A 
ATOM     61  CE2 PHE A   8       0.160   4.601  -5.874  0.00  0.00    -0.000 A 
ATOM     62  CZ  PHE A   8      -0.173   3.873  -7.035  0.00  0.00    -0.000 A 
ATOM     63  CE1 PHE A   8      -1.132   4.396  -7.935  0.00  0.00    -0.000 A 
ATOM     64  CD1 PHE A   8      -1.728   5.645  -7.661  0.00  0.00    -0.004 A 
ENDBRANCH  58  59
ENDBRANCH  46  58
ENDBRANCH  44  46
ENDBRANCH  41  42
ENDBRANCH  39  41
ENDBRANCH  36  37
ENDBRANCH  34  36
ENDBRANCH   1  32
BRANCH   1  65
ATOM     65  CB  ILE A   5      -5.143  12.617   2.937  0.00  0.00    +0.027 C 
ATOM     66  CG2 ILE A   5      -5.696  11.384   3.519  0.00  0.00    +0.002 C 
BRANCH  65  67
ATOM     67  CG1 ILE A   5      -4.463  13.397   4.072  0.00  0.00    +0.002 C 
ATOM     68  CD1 ILE A   5      -4.631  14.924   3.905  0.00  0.00    +0.000 C 
ENDBRANCH  65  67
ENDBRANCH   1  65
TORSDOF 29
REMARK  Name = ../refined-set-2016/1izi/1izi_pocket.pdb
REMARK  218 active torsions:
REMARK  status: ('A' for Active; 'I' for Inactive)
REMARK    1  A    between atoms: _1  and  _3
REMARK    2  A    between atoms: _3  and  _4
REMARK    3  A    between atoms: _3  and  _6
REMARK    4  A    between atoms: _6  and  _7
REMARK    5  A    between atoms: _7  and  _8
REMARK    6  A    between atoms: _8  and  _9
REMARK    7  A    between atoms: _18  and  _20
REMARK    8  A    between atoms: _20  and  _21
REMARK    9  A    between atoms: _20  and  _23
REMARK   10  A    between atoms: _23  and  _24
REMARK   11  A    between atoms: _27  and  _29
REMARK   12  A    between atoms: _29  and  _30
REMARK   13  A    between atoms: _29  and  _32
REMARK   14  A    between atoms: _32  and  _33
REMARK   15  A    between atoms: _36  and  _38
REMARK   16  A    between atoms: _38  and  _39
REMARK   17  A    between atoms: _38  and  _41
REMARK   18  A    between atoms: _41  and  _42
REMARK   19  A    between atoms: _45  and  _47
REMARK   20  A    between atoms: _47  and  _48
REMARK   21  A    between atoms: _47  and  _50
REMARK   22  A    between atoms: _50  and  _51
REMARK   23  A    between atoms: _54  and  _56
REMARK   24  A    between atoms: _56  and  _57
REMARK   25  A    between atoms: _59  and  _61
REMARK   26  A    between atoms: _61  and  _62
REMARK   27  A    between atoms: _65  and  _67
REMARK   28  A    between atoms: _67  and  _68
REMARK   29  A    between atoms: _67  and  _70
REMARK   30  A    between atoms: _70  and  _71
REMARK   31  A    between atoms: _74  and  _76
REMARK   32  A    between atoms: _76  and  _77
REMARK   33  A    between atoms: _76  and  _79
REMARK   34  A    between atoms: _79  and  _80
REMARK   35  A    between atoms: _83  and  _85
REMARK   36  A    between atoms: _85  and  _86
REMARK   37  A    between atoms: _85  and  _88
REMARK   38  A    between atoms: _88  and  _89
REMARK   39  A    between atoms: _92  and  _94
REMARK   40  A    between atoms: _94  and  _95
REMARK   41  A    between atoms: _94  and  _97
REMARK   42  A    between atoms: _100  and  _102
REMARK   43  A    between atoms: _102  and  _103
REMARK   44  A    between atoms: _102  and  _105
REMARK   45  A    between atoms: _105  and  _106
REMARK   46  A    between atoms: _109  and  _111
REMARK   47  A    between atoms: _111  and  _112
REMARK   48  A    between atoms: _111  and  _114
REMARK   49  A    between atoms: _114  and  _115
REMARK   50  A    between atoms: _115  and  _116
REMARK   51  A    between atoms: _118  and  _120
REMARK   52  A    between atoms: _120  and  _121
REMARK   53  A    between atoms: _120  and  _123
REMARK   54  A    between atoms: _123  and  _124
REMARK   55  A    between atoms: _127  and  _129
REMARK   56  A    between atoms: _129  and  _130
REMARK   57  A    between atoms: _132  and  _134
REMARK   58  A    between atoms: _134  and  _135
REMARK   59  A    between atoms: _137  and  _139
REMARK   60  A    between atoms: _139  and  _140
REMARK   61  A    between atoms: _139  and  _142
REMARK   62  A    between atoms: _142  and  _143
REMARK   63  A    between atoms: _146  and  _148
REMARK   64  A    between atoms: _148  and  _149
REMARK   65  A    between atoms: _151  and  _153
REMARK   66  A    between atoms: _153  and  _154
REMARK   67  A    between atoms: _156  and  _158
REMARK   68  A    between atoms: _158  and  _159
REMARK   69  A    between atoms: _158  and  _161
REMARK   70  A    between atoms: _161  and  _162
REMARK   71  A    between atoms: _165  and  _167
REMARK   72  A    between atoms: _167  and  _168
REMARK   73  A    between atoms: _167  and  _170
REMARK   74  A    between atoms: _173  and  _175
REMARK   75  A    between atoms: _175  and  _176
REMARK   76  A    between atoms: _175  and  _178
REMARK   77  A    between atoms: _178  and  _179
REMARK   78  A    between atoms: _182  and  _184
REMARK   79  A    between atoms: _184  and  _185
REMARK   80  A    between atoms: _184  and  _187
REMARK   81  A    between atoms: _187  and  _188
REMARK   82  A    between atoms: _192  and  _193
REMARK   83  A    between atoms: _198  and  _200
REMARK   84  A    between atoms: _200  and  _201
REMARK   85  A    between atoms: _200  and  _203
REMARK   86  A    between atoms: _203  and  _204
REMARK   87  A    between atoms: _207  and  _209
REMARK   88  A    between atoms: _209  and  _210
REMARK   89  A    between atoms: _209  and  _212
REMARK   90  A    between atoms: _212  and  _213
REMARK   91  A    between atoms: _218  and  _220
REMARK   92  A    between atoms: _220  and  _221
REMARK   93  A    between atoms: _220  and  _223
REMARK   94  A    between atoms: _226  and  _228
REMARK   95  A    between atoms: _228  and  _229
REMARK   96  A    between atoms: _228  and  _231
REMARK   97  A    between atoms: _231  and  _232
REMARK   98  A    between atoms: _235  and  _237
REMARK   99  A    between atoms: _237  and  _238
REMARK  100  A    between atoms: _240  and  _242
REMARK  101  A    between atoms: _242  and  _243
REMARK  102  A    between atoms: _242  and  _245
REMARK  103  A    between atoms: _245  and  _246
REMARK  104  A    between atoms: _246  and  _247
REMARK  105  A    between atoms: _247  and  _248
REMARK  106  A    between atoms: _257  and  _259
REMARK  107  A    between atoms: _259  and  _260
REMARK  108  A    between atoms: _259  and  _262
REMARK  109  A    between atoms: _262  and  _263
REMARK  110  A    between atoms: _268  and  _270
REMARK  111  A    between atoms: _270  and  _271
REMARK  112  A    between atoms: _270  and  _273
REMARK  113  A    between atoms: _273  and  _274
REMARK  114  A    between atoms: _274  and  _275
REMARK  115  A    between atoms: _275  and  _276
REMARK  116  A    between atoms: _285  and  _287
REMARK  117  A    between atoms: _287  and  _288
REMARK  118  A    between atoms: _287  and  _290
REMARK  119  A    between atoms: _290  and  _291
REMARK  120  A    between atoms: _294  and  _296
REMARK  121  A    between atoms: _296  and  _297
REMARK  122  A    between atoms: _296  and  _299
REMARK  123  A    between atoms: _299  and  _300
REMARK  124  A    between atoms: _303  and  _305
REMARK  125  A    between atoms: _305  and  _306
REMARK  126  A    between atoms: _305  and  _308
REMARK  127  A    between atoms: _308  and  _309
REMARK  128  A    between atoms: _312  and  _314
REMARK  129  A    between atoms: _314  and  _315
REMARK  130  A    between atoms: _314  and  _317
REMARK  131  A    between atoms: _317  and  _318
REMARK  132  A    between atoms: _321  and  _323
REMARK  133  A    between atoms: _323  and  _324
REMARK  134  A    between atoms: _326  and  _328
REMARK  135  A    between atoms: _328  and  _329
REMARK  136  A    between atoms: _332  and  _334
REMARK  137  A    between atoms: _334  and  _335
REMARK  138  A    between atoms: _334  and  _337
REMARK  139  A    between atoms: _337  and  _338
REMARK  140  A    between atoms: _341  and  _343
REMARK  141  A    between atoms: _343  and  _344
REMARK  142  A    between atoms: _343  and  _346
REMARK  143  A    between atoms: _346  and  _347
REMARK  144  A    between atoms: _350  and  _352
REMARK  145  A    between atoms: _352  and  _353
REMARK  146  A    between atoms: _352  and  _355
REMARK  147  A    between atoms: _355  and  _356
REMARK  148  A    between atoms: _359  and  _361
REMARK  149  A    between atoms: _361  and  _362
REMARK  150  A    between atoms: _361  and  _364
REMARK  151  A    between atoms: _367  and  _369
REMARK  152  A    between atoms: _369  and  _370
REMARK  153  A    between atoms: _369  and  _372
REMARK  154  A    between atoms: _372  and  _373
REMARK  155  A    between atoms: _373  and  _374
REMARK  156  A    between atoms: _376  and  _378
REMARK  157  A    between atoms: _378  and  _379
REMARK  158  A    between atoms: _378  and  _381
REMARK  159  A    between atoms: _381  and  _382
REMARK  160  A    between atoms: _385  and  _387
REMARK  161  A    between atoms: _387  and  _388
REMARK  162  A    between atoms: _390  and  _392
REMARK  163  A    between atoms: _392  and  _393
REMARK  164  A    between atoms: _395  and  _397
REMARK  165  A    between atoms: _397  and  _398
REMARK  166  A    between atoms: _397  and  _400
REMARK  167  A    between atoms: _400  and  _401
REMARK  168  A    between atoms: _404  and  _406
REMARK  169  A    between atoms: _406  and  _407
REMARK  170  A    between atoms: _409  and  _411
REMARK  171  A    between atoms: _411  and  _412
REMARK  172  A    between atoms: _414  and  _416
REMARK  173  A    between atoms: _416  and  _417
REMARK  174  A    between atoms: _416  and  _419
REMARK  175  A    between atoms: _419  and  _420
REMARK  176  A    between atoms: _426  and  _428
REMARK  177  A    between atoms: _428  and  _429
REMARK  178  A    between atoms: _428  and  _431
REMARK  179  A    between atoms: _431  and  _432
REMARK  180  A    between atoms: _435  and  _437
REMARK  181  A    between atoms: _437  and  _438
REMARK  182  A    between atoms: _437  and  _440
REMARK  183  A    between atoms: _443  and  _445
REMARK  184  A    between atoms: _445  and  _446
REMARK  185  A    between atoms: _445  and  _448
REMARK  186  A    between atoms: _448  and  _449
REMARK  187  A    between atoms: _452  and  _454
REMARK  188  A    between atoms: _454  and  _455
REMARK  189  A    between atoms: _454  and  _457
REMARK  190  A    between atoms: _457  and  _458
REMARK  191  A    between atoms: _462  and  _463
REMARK  192  A    between atoms: _468  and  _470
REMARK  193  A    between atoms: _470  and  _471
REMARK  194  A    between atoms: _470  and  _473
REMARK  195  A    between atoms: _473  and  _474
REMARK  196  A    between atoms: _477  and  _479
REMARK  197  A    between atoms: _479  and  _480
REMARK  198  A    between atoms: _479  and  _482
REMARK  199  A    between atoms: _482  and  _483
REMARK  200  A    between atoms: _488  and  _490
REMARK  201  A    between atoms: _490  and  _491
REMARK  202  A    between atoms: _490  and  _493
REMARK  203  A    between atoms: _496  and  _498
REMARK  204  A    between atoms: _498  and  _499
REMARK  205  A    between atoms: _498  and  _501
REMARK  206  A    between atoms: _501  and  _502
REMARK  207  A    between atoms: _505  and  _507
REMARK  208  A    between atoms: _507  and  _508
REMARK  209  A    between atoms: _510  and  _512
REMARK  210  A    between atoms: _512  and  _513
REMARK  211  A    between atoms: _512  and  _515
REMARK  212  A    between atoms: _515  and  _516
REMARK  213  A    between atoms: _516  and  _517
REMARK  214  A    between atoms: _517  and  _518
REMARK  215  A    between atoms: _527  and  _529
REMARK  216  A    between atoms: _529  and  _530
REMARK  217  A    between atoms: _529  and  _532
REMARK  218  A    between atoms: _532  and  _533
REMARK                            x       y       z     vdW  Elec       q    Type
REMARK                         _______ _______ _______ _____ _____    ______ ____
ROOT
ATOM      1  CA  VAL A   1      -9.320   7.122 -12.378  0.00  0.00    +0.133 C 
ENDROOT
BRANCH   1   2
ATOM      2  CB  VAL A   1      -9.635   8.533 -11.902  0.00  0.00    +0.023 C 
ATOM      3  CG2 VAL A   1      -9.554   8.607 -10.421  0.00  0.00    +0.002 C 
ATOM      4  CG1 VAL A   1      -8.705   9.540 -12.525  0.00  0.00    +0.002 C 
ENDBRANCH   1   2
BRANCH   1   5
ATOM      5  N   VAL A   1      -7.984   6.739 -12.018  0.00  0.00    -0.239 NA
ATOM      6  H   VAL A   1      -7.173   7.223 -12.452  0.00  0.00    +0.142 HD
ENDBRANCH   1   5
BRANCH   1   7
ATOM      7  C   VAL A   1      -9.443   7.148 -13.886  0.00  0.00    +0.224 C 
ATOM      8  O   VAL A   1      -8.425   7.167 -14.590  0.00  0.00    -0.287 OA
ENDBRANCH   1   7
TORSDOF 3
REMARK  Name = ../refined-set-2016/1izi/1izi_pocket.pdb
REMARK  218 active torsions:
REMARK  status: ('A' for Active; 'I' for Inactive)
REMARK    1  A    between atoms: _1  and  _3
REMARK    2  A    between atoms: _3  and  _4
REMARK    3  A    between atoms: _3  and  _6
REMARK    4  A    between atoms: _6  and  _7
REMARK    5  A    between atoms: _7  and  _8
REMARK    6  A    between atoms: _8  and  _9
REMARK    7  A    between atoms: _18  and  _20
REMARK    8  A    between atoms: _20  and  _21
REMARK    9  A    between atoms: _20  and  _23
REMARK   10  A    between atoms: _23  and  _24
REMARK   11  A    between atoms: _27  and  _29
REMARK   12  A    between atoms: _29  and  _30
REMARK   13  A    between atoms: _29  and  _32
REMARK   14  A    between atoms: _32  and  _33
REMARK   15  A    between atoms: _36  and  _38
REMARK   16  A    between atoms: _38  and  _39
REMARK   17  A    between atoms: _38  and  _41
REMARK   18  A    between atoms: _41  and  _42
REMARK   19  A    between atoms: _45  and  _47
REMARK   20  A    between atoms: _47  and  _48
REMARK   21  A    between atoms: _47  and  _50
REMARK   22  A    between atoms: _50  and  _51
REMARK   23  A    between atoms: _54  and  _56
REMARK   24  A    between atoms: _56  and  _57
REMARK   25  A    between atoms: _59  and  _61
REMARK   26  A    between atoms: _61  and  _62
REMARK   27  A    between atoms: _65  and  _67
REMARK   28  A    between atoms: _67  and  _68
REMARK   29  A    between atoms: _67  and  _70
REMARK   30  A    between atoms: _70  and  _71
REMARK   31  A    between atoms: _74  and  _76
REMARK   32  A    between atoms: _76  and  _77
REMARK   33  A    between atoms: _76  and  _79
REMARK   34  A    between atoms: _79  and  _80
REMARK   35  A    between atoms: _83  and  _85
REMARK   36  A    between atoms: _85  and  _86
REMARK   37  A    between atoms: _85  and  _88
REMARK   38  A    between atoms: _88  and  _89
REMARK   39  A    between atoms: _92  and  _94
REMARK   40  A    between atoms: _94  and  _95
REMARK   41  A    between atoms: _94  and  _97
REMARK   42  A    between atoms: _100  and  _102
REMARK   43  A    between atoms: _102  and  _103
REMARK   44  A    between atoms: _102  and  _105
REMARK   45  A    between atoms: _105  and  _106
REMARK   46  A    between atoms: _109  and  _111
REMARK   47  A    between atoms: _111  and  _112
REMARK   48  A    between atoms: _111  and  _114
REMARK   49  A    between atoms: _114  and  _115
REMARK   50  A    between atoms: _115  and  _116
REMARK   51  A    between atoms: _118  and  _120
REMARK   52  A    between atoms: _120  and  _121
REMARK   53  A    between atoms: _120  and  _123
REMARK   54  A    between atoms: _123  and  _124
REMARK   55  A    between atoms: _127  and  _129
REMARK   56  A    between atoms: _129  and  _130
REMARK   57  A    between atoms: _132  and  _134
REMARK   58  A    between atoms: _134  and  _135
REMARK   59  A    between atoms: _137  and  _139
REMARK   60  A    between atoms: _139  and  _140
REMARK   61  A    between atoms: _139  and  _142
REMARK   62  A    between atoms: _142  and  _143
REMARK   63  A    between atoms: _146  and  _148
REMARK   64  A    between atoms: _148  and  _149
REMARK   65  A    between atoms: _151  and  _153
REMARK   66  A    between atoms: _153  and  _154
REMARK   67  A    between atoms: _156  and  _158
REMARK   68  A    between atoms: _158  and  _159
REMARK   69  A    between atoms: _158  and  _161
REMARK   70  A    between atoms: _161  and  _162
REMARK   71  A    between atoms: _165  and  _167
REMARK   72  A    between atoms: _167  and  _168
REMARK   73  A    between atoms: _167  and  _170
REMARK   74  A    between atoms: _173  and  _175
REMARK   75  A    between atoms: _175  and  _176
REMARK   76  A    between atoms: _175  and  _178
REMARK   77  A    between atoms: _178  and  _179
REMARK   78  A    between atoms: _182  and  _184
REMARK   79  A    between atoms: _184  and  _185
REMARK   80  A    between atoms: _184  and  _187
REMARK   81  A    between atoms: _187  and  _188
REMARK   82  A    between atoms: _192  and  _193
REMARK   83  A    between atoms: _198  and  _200
REMARK   84  A    between atoms: _200  and  _201
REMARK   85  A    between atoms: _200  and  _203
REMARK   86  A    between atoms: _203  and  _204
REMARK   87  A    between atoms: _207  and  _209
REMARK   88  A    between atoms: _209  and  _210
REMARK   89  A    between atoms: _209  and  _212
REMARK   90  A    between atoms: _212  and  _213
REMARK   91  A    between atoms: _218  and  _220
REMARK   92  A    between atoms: _220  and  _221
REMARK   93  A    between atoms: _220  and  _223
REMARK   94  A    between atoms: _226  and  _228
REMARK   95  A    between atoms: _228  and  _229
REMARK   96  A    between atoms: _228  and  _231
REMARK   97  A    between atoms: _231  and  _232
REMARK   98  A    between atoms: _235  and  _237
REMARK   99  A    between atoms: _237  and  _238
REMARK  100  A    between atoms: _240  and  _242
REMARK  101  A    between atoms: _242  and  _243
REMARK  102  A    between atoms: _242  and  _245
REMARK  103  A    between atoms: _245  and  _246
REMARK  104  A    between atoms: _246  and  _247
REMARK  105  A    between atoms: _247  and  _248
REMARK  106  A    between atoms: _257  and  _259
REMARK  107  A    between atoms: _259  and  _260
REMARK  108  A    between atoms: _259  and  _262
REMARK  109  A    between atoms: _262  and  _263
REMARK  110  A    between atoms: _268  and  _270
REMARK  111  A    between atoms: _270  and  _271
REMARK  112  A    between atoms: _270  and  _273
REMARK  113  A    between atoms: _273  and  _274
REMARK  114  A    between atoms: _274  and  _275
REMARK  115  A    between atoms: _275  and  _276
REMARK  116  A    between atoms: _285  and  _287
REMARK  117  A    between atoms: _287  and  _288
REMARK  118  A    between atoms: _287  and  _290
REMARK  119  A    between atoms: _290  and  _291
REMARK  120  A    between atoms: _294  and  _296
REMARK  121  A    between atoms: _296  and  _297
REMARK  122  A    between atoms: _296  and  _299
REMARK  123  A    between atoms: _299  and  _300
REMARK  124  A    between atoms: _303  and  _305
REMARK  125  A    between atoms: _305  and  _306
REMARK  126  A    between atoms: _305  and  _308
REMARK  127  A    between atoms: _308  and  _309
REMARK  128  A    between atoms: _312  and  _314
REMARK  129  A    between atoms: _314  and  _315
REMARK  130  A    between atoms: _314  and  _317
REMARK  131  A    between atoms: _317  and  _318
REMARK  132  A    between atoms: _321  and  _323
REMARK  133  A    between atoms: _323  and  _324
REMARK  134  A    between atoms: _326  and  _328
REMARK  135  A    between atoms: _328  and  _329
REMARK  136  A    between atoms: _332  and  _334
REMARK  137  A    between atoms: _334  and  _335
REMARK  138  A    between atoms: _334  and  _337
REMARK  139  A    between atoms: _337  and  _338
REMARK  140  A    between atoms: _341  and  _343
REMARK  141  A    between atoms: _343  and  _344
REMARK  142  A    between atoms: _343  and  _346
REMARK  143  A    between atoms: _346  and  _347
REMARK  144  A    between atoms: _350  and  _352
REMARK  145  A    between atoms: _352  and  _353
REMARK  146  A    between atoms: _352  and  _355
REMARK  147  A    between atoms: _355  and  _356
REMARK  148  A    between atoms: _359  and  _361
REMARK  149  A    between atoms: _361  and  _362
REMARK  150  A    between atoms: _361  and  _364
REMARK  151  A    between atoms: _367  and  _369
REMARK  152  A    between atoms: _369  and  _370
REMARK  153  A    between atoms: _369  and  _372
REMARK  154  A    between atoms: _372  and  _373
REMARK  155  A    between atoms: _373  and  _374
REMARK  156  A    between atoms: _376  and  _378
REMARK  157  A    between atoms: _378  and  _379
REMARK  158  A    between atoms: _378  and  _381
REMARK  159  A    between atoms: _381  and  _382
REMARK  160  A    between atoms: _385  and  _387
REMARK  161  A    between atoms: _387  and  _388
REMARK  162  A    between atoms: _390  and  _392
REMARK  163  A    between atoms: _392  and  _393
REMARK  164  A    between atoms: _395  and  _397
REMARK  165  A    between atoms: _397  and  _398
REMARK  166  A    between atoms: _397  and  _400
REMARK  167  A    between atoms: _400  and  _401
REMARK  168  A    between atoms: _404  and  _406
REMARK  169  A    between atoms: _406  and  _407
REMARK  170  A    between atoms: _409  and  _411
REMARK  171  A    between atoms: _411  and  _412
REMARK  172  A    between atoms: _414  and  _416
REMARK  173  A    between atoms: _416  and  _417
REMARK  174  A    between atoms: _416  and  _419
REMARK  175  A    between atoms: _419  and  _420
REMARK  176  A    between atoms: _426  and  _428
REMARK  177  A    between atoms: _428  and  _429
REMARK  178  A    between atoms: _428  and  _431
REMARK  179  A    between atoms: _431  and  _432
REMARK  180  A    between atoms: _435  and  _437
REMARK  181  A    between atoms: _437  and  _438
REMARK  182  A    between atoms: _437  and  _440
REMARK  183  A    between atoms: _443  and  _445
REMARK  184  A    between atoms: _445  and  _446
REMARK  185  A    between atoms: _445  and  _448
REMARK  186  A    between atoms: _448  and  _449
REMARK  187  A    between atoms: _452  and  _454
REMARK  188  A    between atoms: _454  and  _455
REMARK  189  A    between atoms: _454  and  _457
REMARK  190  A    between atoms: _457  and  _458
REMARK  191  A    between atoms: _462  and  _463
REMARK  192  A    between atoms: _468  and  _470
REMARK  193  A    between atoms: _470  and  _471
REMARK  194  A    between atoms: _470  and  _473
REMARK  195  A    between atoms: _473  and  _474
REMARK  196  A    between atoms: _477  and  _479
REMARK  197  A    between atoms: _479  and  _480
REMARK  198  A    between atoms: _479  and  _482
REMARK  199  A    between atoms: _482  and  _483
REMARK  200  A    between atoms: _488  and  _490
REMARK  201  A    between atoms: _490  and  _491
REMARK  202  A    between atoms: _490  and  _493
REMARK  203  A    between atoms: _496  and  _498
REMARK  204  A    between atoms: _498  and  _499
REMARK  205  A    between atoms: _498  and  _501
REMARK  206  A    between atoms: _501  and  _502
REMARK  207  A    between atoms: _505  and  _507
REMARK  208  A    between atoms: _507  and  _508
REMARK  209  A    between atoms: _510  and  _512
REMARK  210  A    between atoms: _512  and  _513
REMARK  211  A    between atoms: _512  and  _515
REMARK  212  A    between atoms: _515  and  _516
REMARK  213  A    between atoms: _516  and  _517
REMARK  214  A    between atoms: _517  and  _518
REMARK  215  A    between atoms: _527  and  _529
REMARK  216  A    between atoms: _529  and  _530
REMARK  217  A    between atoms: _529  and  _532
REMARK  218  A    between atoms: _532  and  _533
REMARK                            x       y       z     vdW  Elec       q    Type
REMARK                         _______ _______ _______ _____ _____    ______ ____
ROOT
ATOM      1  CA  LEU A   1     -12.924  11.800 -13.181  0.00  0.00    +0.133 C 
ENDROOT
BRANCH   1   2
ATOM      2  N   LEU A   1     -13.731  13.004 -13.371  0.00  0.00    -0.239 NA
ATOM      3  H   LEU A   1     -13.871  13.644 -12.563  0.00  0.00    +0.142 HD
ENDBRANCH   1   2
BRANCH   1   4
ATOM      4  C   LEU A   1     -13.736  10.731 -12.457  0.00  0.00    +0.224 C 
ATOM      5  O   LEU A   1     -14.480  11.022 -11.550  0.00  0.00    -0.287 OA
ENDBRANCH   1   4
BRANCH   1   6
ATOM      6  CB  LEU A   1     -11.654  12.113 -12.360  0.00  0.00    +0.025 C 
BRANCH   6   7
ATOM      7  CG  LEU A   1     -10.760  13.268 -12.835  0.00  0.00    +0.002 C 
ATOM      8  CD2 LEU A   1      -9.502  13.407 -11.895  0.00  0.00    +0.000 C 
ATOM      9  CD1 LEU A   1     -10.318  13.112 -14.272  0.00  0.00    +0.000 C 
ENDBRANCH   6   7
ENDBRANCH   1   6
TORSDOF 4
REMARK  Name = ../refined-set-2016/1izi/1izi_pocket.pdb
REMARK  218 active torsions:
REMARK  status: ('A' for Active; 'I' for Inactive)
REMARK    1  A    between atoms: _1  and  _3
REMARK    2  A    between atoms: _3  and  _4
REMARK    3  A    between atoms: _3  and  _6
REMARK    4  A    between atoms: _6  and  _7
REMARK    5  A    between atoms: _7  and  _8
REMARK    6  A    between atoms: _8  and  _9
REMARK    7  A    between atoms: _18  and  _20
REMARK    8  A    between atoms: _20  and  _21
REMARK    9  A    between atoms: _20  and  _23
REMARK   10  A    between atoms: _23  and  _24
REMARK   11  A    between atoms: _27  and  _29
REMARK   12  A    between atoms: _29  and  _30
REMARK   13  A    between atoms: _29  and  _32
REMARK   14  A    between atoms: _32  and  _33
REMARK   15  A    between atoms: _36  and  _38
REMARK   16  A    between atoms: _38  and  _39
REMARK   17  A    between atoms: _38  and  _41
REMARK   18  A    between atoms: _41  and  _42
REMARK   19  A    between atoms: _45  and  _47
REMARK   20  A    between atoms: _47  and  _48
REMARK   21  A    between atoms: _47  and  _50
REMARK   22  A    between atoms: _50  and  _51
REMARK   23  A    between atoms: _54  and  _56
REMARK   24  A    between atoms: _56  and  _57
REMARK   25  A    between atoms: _59  and  _61
REMARK   26  A    between atoms: _61  and  _62
REMARK   27  A    between atoms: _65  and  _67
REMARK   28  A    between atoms: _67  and  _68
REMARK   29  A    between atoms: _67  and  _70
REMARK   30  A    between atoms: _70  and  _71
REMARK   31  A    between atoms: _74  and  _76
REMARK   32  A    between atoms: _76  and  _77
REMARK   33  A    between atoms: _76  and  _79
REMARK   34  A    between atoms: _79  and  _80
REMARK   35  A    between atoms: _83  and  _85
REMARK   36  A    between atoms: _85  and  _86
REMARK   37  A    between atoms: _85  and  _88
REMARK   38  A    between atoms: _88  and  _89
REMARK   39  A    between atoms: _92  and  _94
REMARK   40  A    between atoms: _94  and  _95
REMARK   41  A    between atoms: _94  and  _97
REMARK   42  A    between atoms: _100  and  _102
REMARK   43  A    between atoms: _102  and  _103
REMARK   44  A    between atoms: _102  and  _105
REMARK   45  A    between atoms: _105  and  _106
REMARK   46  A    between atoms: _109  and  _111
REMARK   47  A    between atoms: _111  and  _112
REMARK   48  A    between atoms: _111  and  _114
REMARK   49  A    between atoms: _114  and  _115
REMARK   50  A    between atoms: _115  and  _116
REMARK   51  A    between atoms: _118  and  _120
REMARK   52  A    between atoms: _120  and  _121
REMARK   53  A    between atoms: _120  and  _123
REMARK   54  A    between atoms: _123  and  _124
REMARK   55  A    between atoms: _127  and  _129
REMARK   56  A    between atoms: _129  and  _130
REMARK   57  A    between atoms: _132  and  _134
REMARK   58  A    between atoms: _134  and  _135
REMARK   59  A    between atoms: _137  and  _139
REMARK   60  A    between atoms: _139  and  _140
REMARK   61  A    between atoms: _139  and  _142
REMARK   62  A    between atoms: _142  and  _143
REMARK   63  A    between atoms: _146  and  _148
REMARK   64  A    between atoms: _148  and  _149
REMARK   65  A    between atoms: _151  and  _153
REMARK   66  A    between atoms: _153  and  _154
REMARK   67  A    between atoms: _156  and  _158
REMARK   68  A    between atoms: _158  and  _159
REMARK   69  A    between atoms: _158  and  _161
REMARK   70  A    between atoms: _161  and  _162
REMARK   71  A    between atoms: _165  and  _167
REMARK   72  A    between atoms: _167  and  _168
REMARK   73  A    between atoms: _167  and  _170
REMARK   74  A    between atoms: _173  and  _175
REMARK   75  A    between atoms: _175  and  _176
REMARK   76  A    between atoms: _175  and  _178
REMARK   77  A    between atoms: _178  and  _179
REMARK   78  A    between atoms: _182  and  _184
REMARK   79  A    between atoms: _184  and  _185
REMARK   80  A    between atoms: _184  and  _187
REMARK   81  A    between atoms: _187  and  _188
REMARK   82  A    between atoms: _192  and  _193
REMARK   83  A    between atoms: _198  and  _200
REMARK   84  A    between atoms: _200  and  _201
REMARK   85  A    between atoms: _200  and  _203
REMARK   86  A    between atoms: _203  and  _204
REMARK   87  A    between atoms: _207  and  _209
REMARK   88  A    between atoms: _209  and  _210
REMARK   89  A    between atoms: _209  and  _212
REMARK   90  A    between atoms: _212  and  _213
REMARK   91  A    between atoms: _218  and  _220
REMARK   92  A    between atoms: _220  and  _221
REMARK   93  A    between atoms: _220  and  _223
REMARK   94  A    between atoms: _226  and  _228
REMARK   95  A    between atoms: _228  and  _229
REMARK   96  A    between atoms: _228  and  _231
REMARK   97  A    between atoms: _231  and  _232
REMARK   98  A    between atoms: _235  and  _237
REMARK   99  A    between atoms: _237  and  _238
REMARK  100  A    between atoms: _240  and  _242
REMARK  101  A    between atoms: _242  and  _243
REMARK  102  A    between atoms: _242  and  _245
REMARK  103  A    between atoms: _245  and  _246
REMARK  104  A    between atoms: _246  and  _247
REMARK  105  A    between atoms: _247  and  _248
REMARK  106  A    between atoms: _257  and  _259
REMARK  107  A    between atoms: _259  and  _260
REMARK  108  A    between atoms: _259  and  _262
REMARK  109  A    between atoms: _262  and  _263
REMARK  110  A    between atoms: _268  and  _270
REMARK  111  A    between atoms: _270  and  _271
REMARK  112  A    between atoms: _270  and  _273
REMARK  113  A    between atoms: _273  and  _274
REMARK  114  A    between atoms: _274  and  _275
REMARK  115  A    between atoms: _275  and  _276
REMARK  116  A    between atoms: _285  and  _287
REMARK  117  A    between atoms: _287  and  _288
REMARK  118  A    between atoms: _287  and  _290
REMARK  119  A    between atoms: _290  and  _291
REMARK  120  A    between atoms: _294  and  _296
REMARK  121  A    between atoms: _296  and  _297
REMARK  122  A    between atoms: _296  and  _299
REMARK  123  A    between atoms: _299  and  _300
REMARK  124  A    between atoms: _303  and  _305
REMARK  125  A    between atoms: _305  and  _306
REMARK  126  A    between atoms: _305  and  _308
REMARK  127  A    between atoms: _308  and  _309
REMARK  128  A    between atoms: _312  and  _314
REMARK  129  A    between atoms: _314  and  _315
REMARK  130  A    between atoms: _314  and  _317
REMARK  131  A    between atoms: _317  and  _318
REMARK  132  A    between atoms: _321  and  _323
REMARK  133  A    between atoms: _323  and  _324
REMARK  134  A    between atoms: _326  and  _328
REMARK  135  A    between atoms: _328  and  _329
REMARK  136  A    between atoms: _332  and  _334
REMARK  137  A    between atoms: _334  and  _335
REMARK  138  A    between atoms: _334  and  _337
REMARK  139  A    between atoms: _337  and  _338
REMARK  140  A    between atoms: _341  and  _343
REMARK  141  A    between atoms: _343  and  _344
REMARK  142  A    between atoms: _343  and  _346
REMARK  143  A    between atoms: _346  and  _347
REMARK  144  A    between atoms: _350  and  _352
REMARK  145  A    between atoms: _352  and  _353
REMARK  146  A    between atoms: _352  and  _355
REMARK  147  A    between atoms: _355  and  _356
REMARK  148  A    between atoms: _359  and  _361
REMARK  149  A    between atoms: _361  and  _362
REMARK  150  A    between atoms: _361  and  _364
REMARK  151  A    between atoms: _367  and  _369
REMARK  152  A    between atoms: _369  and  _370
REMARK  153  A    between atoms: _369  and  _372
REMARK  154  A    between atoms: _372  and  _373
REMARK  155  A    between atoms: _373  and  _374
REMARK  156  A    between atoms: _376  and  _378
REMARK  157  A    between atoms: _378  and  _379
REMARK  158  A    between atoms: _378  and  _381
REMARK  159  A    between atoms: _381  and  _382
REMARK  160  A    between atoms: _385  and  _387
REMARK  161  A    between atoms: _387  and  _388
REMARK  162  A    between atoms: _390  and  _392
REMARK  163  A    between atoms: _392  and  _393
REMARK  164  A    between atoms: _395  and  _397
REMARK  165  A    between atoms: _397  and  _398
REMARK  166  A    between atoms: _397  and  _400
REMARK  167  A    between atoms: _400  and  _401
REMARK  168  A    between atoms: _404  and  _406
REMARK  169  A    between atoms: _406  and  _407
REMARK  170  A    between atoms: _409  and  _411
REMARK  171  A    between atoms: _411  and  _412
REMARK  172  A    between atoms: _414  and  _416
REMARK  173  A    between atoms: _416  and  _417
REMARK  174  A    between atoms: _416  and  _419
REMARK  175  A    between atoms: _419  and  _420
REMARK  176  A    between atoms: _426  and  _428
REMARK  177  A    between atoms: _428  and  _429
REMARK  178  A    between atoms: _428  and  _431
REMARK  179  A    between atoms: _431  and  _432
REMARK  180  A    between atoms: _435  and  _437
REMARK  181  A    between atoms: _437  and  _438
REMARK  182  A    between atoms: _437  and  _440
REMARK  183  A    between atoms: _443  and  _445
REMARK  184  A    between atoms: _445  and  _446
REMARK  185  A    between atoms: _445  and  _448
REMARK  186  A    between atoms: _448  and  _449
REMARK  187  A    between atoms: _452  and  _454
REMARK  188  A    between atoms: _454  and  _455
REMARK  189  A    between atoms: _454  and  _457
REMARK  190  A    between atoms: _457  and  _458
REMARK  191  A    between atoms: _462  and  _463
REMARK  192  A    between atoms: _468  and  _470
REMARK  193  A    between atoms: _470  and  _471
REMARK  194  A    between atoms: _470  and  _473
REMARK  195  A    between atoms: _473  and  _474
REMARK  196  A    between atoms: _477  and  _479
REMARK  197  A    between atoms: _479  and  _480
REMARK  198  A    between atoms: _479  and  _482
REMARK  199  A    between atoms: _482  and  _483
REMARK  200  A    between atoms: _488  and  _490
REMARK  201  A    between atoms: _490  and  _491
REMARK  202  A    between atoms: _490  and  _493
REMARK  203  A    between atoms: _496  and  _498
REMARK  204  A    between atoms: _498  and  _499
REMARK  205  A    between atoms: _498  and  _501
REMARK  206  A    between atoms: _501  and  _502
REMARK  207  A    between atoms: _505  and  _507
REMARK  208  A    between atoms: _507  and  _508
REMARK  209  A    between atoms: _510  and  _512
REMARK  210  A    between atoms: _512  and  _513
REMARK  211  A    between atoms: _512  and  _515
REMARK  212  A    between atoms: _515  and  _516
REMARK  213  A    between atoms: _516  and  _517
REMARK  214  A    between atoms: _517  and  _518
REMARK  215  A    between atoms: _527  and  _529
REMARK  216  A    between atoms: _529  and  _530
REMARK  217  A    between atoms: _529  and  _532
REMARK  218  A    between atoms: _532  and  _533
REMARK                            x       y       z     vdW  Elec       q    Type
REMARK                         _______ _______ _______ _____ _____    ______ ____
ROOT
ATOM      1  C   VAL A   5     -16.277  16.312  -6.072  0.00  0.00    +0.241 C 
ATOM      2  N   ILE A   6     -16.856  17.495  -5.907  0.00  0.00    -0.297 N 
ATOM      3  H   ILE A   6     -17.321  17.696  -4.999  0.00  0.00    +0.150 HD
ATOM      4  O   VAL A   5     -15.955  15.896  -7.134  0.00  0.00    -0.273 OA
ENDROOT
BRANCH   2   5
ATOM      5  CA  ILE A   6     -16.871  18.521  -6.932  0.00  0.00    +0.149 C 
BRANCH   5   6
ATOM      6  C   ILE A   6     -15.705  19.455  -6.635  0.00  0.00    +0.241 C 
ATOM      7  O   ILE A   6     -15.731  20.124  -5.638  0.00  0.00    -0.273 OA
ATOM      8  N   GLY A   7     -14.736  19.484  -7.540  0.00  0.00    -0.295 N 
ATOM      9  H   GLY A   7     -14.861  18.921  -8.406  0.00  0.00    +0.150 HD
BRANCH   8  10
ATOM     10  CA  GLY A   7     -13.530  20.240  -7.401  0.00  0.00    +0.176 C 
BRANCH  10  11
ATOM     11  C   GLY A   7     -13.549  21.575  -8.077  0.00  0.00    +0.243 C 
ATOM     12  N   ARG A   8     -12.419  22.247  -7.974  0.00  0.00    -0.297 N 
ATOM     13  H   ARG A   8     -11.573  21.777  -7.593  0.00  0.00    +0.150 HD
ATOM     14  O   GLY A   7     -14.562  22.027  -8.661  0.00  0.00    -0.273 OA
BRANCH  12  15
ATOM     15  CA  ARG A   8     -12.345  23.613  -8.380  0.00  0.00    +0.149 C 
BRANCH  15  16
ATOM     16  C   ARG A   8     -12.601  23.748  -9.896  0.00  0.00    +0.241 C 
ATOM     17  O   ARG A   8     -13.206  24.751 -10.317  0.00  0.00    -0.273 OA
ATOM     18  N   ASN A   9     -12.252  22.731 -10.678  0.00  0.00    -0.298 N 
ATOM     19  H   ASN A   9     -11.788  21.890 -10.279  0.00  0.00    +0.150 HD
BRANCH  18  20
ATOM     20  CA  ASN A   9     -12.535  22.818 -12.122  0.00  0.00    +0.146 C 
BRANCH  20  21
ATOM     21  C   ASN A   9     -13.987  23.170 -12.399  0.00  0.00    +0.227 C 
ATOM     22  O   ASN A   9     -14.314  23.990 -13.296  0.00  0.00    -0.286 OA
ENDBRANCH  20  21
BRANCH  20  23
ATOM     23  CB  ASN A   9     -12.077  21.570 -12.865  0.00  0.00    +0.112 C 
BRANCH  23  24
ATOM     24  CG  ASN A   9     -12.931  20.380 -12.588  0.00  0.00    +0.222 C 
ATOM     25  OD1 ASN A   9     -13.106  19.953 -11.455  0.00  0.00    -0.275 OA
ATOM     26  ND2 ASN A   9     -13.497  19.842 -13.644  0.00  0.00    -0.329 N 
ATOM     27 HD21 ASN A   9     -14.123  19.019 -13.536  0.00  0.00    +0.145 HD
ATOM     28 HD22 ASN A   9     -13.319  20.239 -14.589  0.00  0.00    +0.145 HD
ENDBRANCH  23  24
ENDBRANCH  20  23
ENDBRANCH  18  20
ENDBRANCH  15  16
BRANCH  15  29
ATOM     29  CB  ARG A   8     -10.996  24.210  -7.976  0.00  0.00    +0.033 C 
BRANCH  29  30
ATOM     30  CG  ARG A   8     -10.901  24.484  -6.454  0.00  0.00    +0.045 C 
BRANCH  30  31
ATOM     31  CD  ARG A   8      -9.685  25.234  -6.025  0.00  0.00    +0.174 C 
BRANCH  31  32
ATOM     32  NE  ARG A   8      -8.485  24.640  -6.550  0.00  0.00    -0.265 N 
ATOM     33  HE  ARG A   8      -8.052  23.863  -6.011  0.00  0.00    +0.259 HD
ATOM     34  CZ  ARG A   8      -7.881  25.025  -7.699  0.00  0.00    +0.342 C 
ATOM     35  NH2 ARG A   8      -6.799  24.387  -8.059  0.00  0.00    -0.292 N 
ATOM     36 HH21 ARG A   8      -6.431  23.613  -7.469  0.00  0.00    +0.255 HD
ATOM     37 HH22 ARG A   8      -6.306  24.653  -8.935  0.00  0.00    +0.255 HD
ATOM     38  NH1 ARG A   8      -8.352  26.000  -8.497  0.00  0.00    -0.292 N 
ATOM     39 HH11 ARG A   8      -9.226  26.503  -8.243  0.00  0.00    +0.255 HD
ATOM     40 HH12 ARG A   8      -7.842  26.251  -9.368  0.00  0.00    +0.255 HD
ENDBRANCH  31  32
ENDBRANCH  30  31
ENDBRANCH  29  30
ENDBRANCH  15  29
ENDBRANCH  12  15
ENDBRANCH  10  11
ENDBRANCH   8  10
ENDBRANCH   5   6
BRANCH   5  41
ATOM     41  CB  ILE A   6     -18.187  19.331  -6.903  0.00  0.00    +0.027 C 
ATOM     42  CG2 ILE A   6     -18.228  20.259  -8.121  0.00  0.00    +0.002 C 
BRANCH  41  43
ATOM     43  CG1 ILE A   6     -19.380  18.379  -6.878  0.00  0.00    +0.002 C 
ATOM     44  CD1 ILE A   6     -19.375  17.423  -8.029  0.00  0.00    +0.000 C 
ENDBRANCH  41  43
ENDBRANCH   5  41
ENDBRANCH   2   5
BRANCH   1  45
ATOM     45  CA  VAL A   5     -16.246  15.426  -4.875  0.00  0.00    +0.149 C 
BRANCH  45  48
ATOM     46  C   ASN A   4     -17.605  13.515  -4.458  0.00  0.00    +0.241 C 
ATOM     47  O   ASN A   4     -17.999  14.089  -3.481  0.00  0.00    -0.273 OA
ATOM     48  N   VAL A   5     -16.659  14.055  -5.219  0.00  0.00    -0.297 N 
ATOM     49  H   VAL A   5     -16.233  13.537  -6.014  0.00  0.00    +0.150 HD
BRANCH  46  50
ATOM     50  CA  ASN A   4     -18.109  12.093  -4.772  0.00  0.00    +0.158 C 
BRANCH  50  52
ATOM     51  C   THR A   3     -16.808  10.891  -3.124  0.00  0.00    +0.243 C 
ATOM     52  N   ASN A   4     -17.997  11.257  -3.595  0.00  0.00    -0.297 N 
ATOM     53  H   ASN A   4     -18.860  10.938  -3.110  0.00  0.00    +0.150 HD
ATOM     54  O   THR A   3     -15.768  11.171  -3.685  0.00  0.00    -0.273 OA
BRANCH  51  55
ATOM     55  CA  THR A   3     -16.777  10.038  -1.885  0.00  0.00    +0.176 C 
BRANCH  55  58
ATOM     56  C   PRO A   2     -15.763   7.984  -1.162  0.00  0.00    +0.241 C 
ATOM     57  O   PRO A   2     -16.750   7.718  -0.453  0.00  0.00    -0.273 OA
ATOM     58  N   THR A   3     -15.678   9.086  -1.917  0.00  0.00    -0.295 N 
ATOM     59  H   THR A   3     -14.844   9.258  -2.514  0.00  0.00    +0.150 HD
BRANCH  56  62
ATOM     60  C   THR A   1     -13.914   7.161  -3.536  0.00  0.00    +0.244 C 
ATOM     61  N   PRO A   2     -13.620   7.378  -2.278  0.00  0.00    -0.272 N 
ATOM     62  CA  PRO A   2     -14.559   7.066  -1.177  0.00  0.00    +0.152 C 
ATOM     63  CB  PRO A   2     -13.757   7.375   0.103  0.00  0.00    +0.031 C 
ATOM     64  CG  PRO A   2     -12.540   8.064  -0.348  0.00  0.00    +0.024 C 
ATOM     65  CD  PRO A   2     -12.324   7.882  -1.812  0.00  0.00    +0.094 C 
ATOM     66  O   THR A   1     -14.965   6.639  -3.872  0.00  0.00    -0.273 OA
BRANCH  60  67
ATOM     67  CA  THR A   1     -12.870   7.560  -4.562  0.00  0.00    +0.172 C 
BRANCH  67  68
ATOM     68  CB  THR A   1     -13.157   8.981  -5.099  0.00  0.00    +0.135 C 
ATOM     69  CG2 THR A   1     -14.463   8.982  -5.838  0.00  0.00    +0.034 C 
BRANCH  68  70
ATOM     70  OG1 THR A   1     -13.377   9.879  -3.985  0.00  0.00    -0.383 OA
ATOM     71  HG1 THR A   1     -14.151   9.562  -3.455  0.00  0.00    +0.210 HD
ENDBRANCH  68  70
ENDBRANCH  67  68
BRANCH  67  72
ATOM     72  N   THR A   1     -12.887   6.598  -5.631  0.00  0.00    -0.236 NA
ATOM     73  H   THR A   1     -13.273   6.856  -6.562  0.00  0.00    +0.142 HD
ENDBRANCH  67  72
ENDBRANCH  60  67
ENDBRANCH  56  62
ENDBRANCH  55  58
BRANCH  55  74
ATOM     74  CB  THR A   3     -16.624  10.859  -0.582  0.00  0.00    +0.137 C 
ATOM     75  CG2 THR A   3     -16.279  12.264  -0.852  0.00  0.00    +0.034 C 
BRANCH  74  76
ATOM     76  OG1 THR A   3     -17.897  10.962   0.037  0.00  0.00    -0.382 OA
ATOM     77  HG1 THR A   3     -17.815  11.486   0.873  0.00  0.00    +0.210 HD
ENDBRANCH  74  76
ENDBRANCH  55  74
ENDBRANCH  51  55
ENDBRANCH  50  52
BRANCH  50  78
ATOM     78  CB  ASN A   4     -19.532  12.159  -5.308  0.00  0.00    +0.114 C 
BRANCH  78  79
ATOM     79  CG  ASN A   4     -20.058  10.780  -5.839  0.00  0.00    +0.222 C 
ATOM     80  ND2 ASN A   4     -21.335  10.555  -5.666  0.00  0.00    -0.329 N 
ATOM     81 HD21 ASN A   4     -21.921  11.247  -5.157  0.00  0.00    +0.145 HD
ATOM     82 HD22 ASN A   4     -21.765   9.684  -6.038  0.00  0.00    +0.145 HD
ATOM     83  OD1 ASN A   4     -19.326   9.990  -6.435  0.00  0.00    -0.275 OA
ENDBRANCH  78  79
ENDBRANCH  50  78
ENDBRANCH  46  50
ENDBRANCH  45  48
BRANCH  45  84
ATOM     84  CB  VAL A   5     -14.854  15.535  -4.215  0.00  0.00    +0.027 C 
ATOM     85  CG2 VAL A   5     -14.799  14.684  -2.972  0.00  0.00    +0.002 C 
ATOM     86  CG1 VAL A   5     -13.753  15.144  -5.170  0.00  0.00    +0.002 C 
ENDBRANCH  45  84
ENDBRANCH   1  45
TORSDOF 32
REMARK  Name = ../refined-set-2016/1izi/1izi_pocket.pdb
REMARK  218 active torsions:
REMARK  status: ('A' for Active; 'I' for Inactive)
REMARK    1  A    between atoms: _1  and  _3
REMARK    2  A    between atoms: _3  and  _4
REMARK    3  A    between atoms: _3  and  _6
REMARK    4  A    between atoms: _6  and  _7
REMARK    5  A    between atoms: _7  and  _8
REMARK    6  A    between atoms: _8  and  _9
REMARK    7  A    between atoms: _18  and  _20
REMARK    8  A    between atoms: _20  and  _21
REMARK    9  A    between atoms: _20  and  _23
REMARK   10  A    between atoms: _23  and  _24
REMARK   11  A    between atoms: _27  and  _29
REMARK   12  A    between atoms: _29  and  _30
REMARK   13  A    between atoms: _29  and  _32
REMARK   14  A    between atoms: _32  and  _33
REMARK   15  A    between atoms: _36  and  _38
REMARK   16  A    between atoms: _38  and  _39
REMARK   17  A    between atoms: _38  and  _41
REMARK   18  A    between atoms: _41  and  _42
REMARK   19  A    between atoms: _45  and  _47
REMARK   20  A    between atoms: _47  and  _48
REMARK   21  A    between atoms: _47  and  _50
REMARK   22  A    between atoms: _50  and  _51
REMARK   23  A    between atoms: _54  and  _56
REMARK   24  A    between atoms: _56  and  _57
REMARK   25  A    between atoms: _59  and  _61
REMARK   26  A    between atoms: _61  and  _62
REMARK   27  A    between atoms: _65  and  _67
REMARK   28  A    between atoms: _67  and  _68
REMARK   29  A    between atoms: _67  and  _70
REMARK   30  A    between atoms: _70  and  _71
REMARK   31  A    between atoms: _74  and  _76
REMARK   32  A    between atoms: _76  and  _77
REMARK   33  A    between atoms: _76  and  _79
REMARK   34  A    between atoms: _79  and  _80
REMARK   35  A    between atoms: _83  and  _85
REMARK   36  A    between atoms: _85  and  _86
REMARK   37  A    between atoms: _85  and  _88
REMARK   38  A    between atoms: _88  and  _89
REMARK   39  A    between atoms: _92  and  _94
REMARK   40  A    between atoms: _94  and  _95
REMARK   41  A    between atoms: _94  and  _97
REMARK   42  A    between atoms: _100  and  _102
REMARK   43  A    between atoms: _102  and  _103
REMARK   44  A    between atoms: _102  and  _105
REMARK   45  A    between atoms: _105  and  _106
REMARK   46  A    between atoms: _109  and  _111
REMARK   47  A    between atoms: _111  and  _112
REMARK   48  A    between atoms: _111  and  _114
REMARK   49  A    between atoms: _114  and  _115
REMARK   50  A    between atoms: _115  and  _116
REMARK   51  A    between atoms: _118  and  _120
REMARK   52  A    between atoms: _120  and  _121
REMARK   53  A    between atoms: _120  and  _123
REMARK   54  A    between atoms: _123  and  _124
REMARK   55  A    between atoms: _127  and  _129
REMARK   56  A    between atoms: _129  and  _130
REMARK   57  A    between atoms: _132  and  _134
REMARK   58  A    between atoms: _134  and  _135
REMARK   59  A    between atoms: _137  and  _139
REMARK   60  A    between atoms: _139  and  _140
REMARK   61  A    between atoms: _139  and  _142
REMARK   62  A    between atoms: _142  and  _143
REMARK   63  A    between atoms: _146  and  _148
REMARK   64  A    between atoms: _148  and  _149
REMARK   65  A    between atoms: _151  and  _153
REMARK   66  A    between atoms: _153  and  _154
REMARK   67  A    between atoms: _156  and  _158
REMARK   68  A    between atoms: _158  and  _159
REMARK   69  A    between atoms: _158  and  _161
REMARK   70  A    between atoms: _161  and  _162
REMARK   71  A    between atoms: _165  and  _167
REMARK   72  A    between atoms: _167  and  _168
REMARK   73  A    between atoms: _167  and  _170
REMARK   74  A    between atoms: _173  and  _175
REMARK   75  A    between atoms: _175  and  _176
REMARK   76  A    between atoms: _175  and  _178
REMARK   77  A    between atoms: _178  and  _179
REMARK   78  A    between atoms: _182  and  _184
REMARK   79  A    between atoms: _184  and  _185
REMARK   80  A    between atoms: _184  and  _187
REMARK   81  A    between atoms: _187  and  _188
REMARK   82  A    between atoms: _192  and  _193
REMARK   83  A    between atoms: _198  and  _200
REMARK   84  A    between atoms: _200  and  _201
REMARK   85  A    between atoms: _200  and  _203
REMARK   86  A    between atoms: _203  and  _204
REMARK   87  A    between atoms: _207  and  _209
REMARK   88  A    between atoms: _209  and  _210
REMARK   89  A    between atoms: _209  and  _212
REMARK   90  A    between atoms: _212  and  _213
REMARK   91  A    between atoms: _218  and  _220
REMARK   92  A    between atoms: _220  and  _221
REMARK   93  A    between atoms: _220  and  _223
REMARK   94  A    between atoms: _226  and  _228
REMARK   95  A    between atoms: _228  and  _229
REMARK   96  A    between atoms: _228  and  _231
REMARK   97  A    between atoms: _231  and  _232
REMARK   98  A    between atoms: _235  and  _237
REMARK   99  A    between atoms: _237  and  _238
REMARK  100  A    between atoms: _240  and  _242
REMARK  101  A    between atoms: _242  and  _243
REMARK  102  A    between atoms: _242  and  _245
REMARK  103  A    between atoms: _245  and  _246
REMARK  104  A    between atoms: _246  and  _247
REMARK  105  A    between atoms: _247  and  _248
REMARK  106  A    between atoms: _257  and  _259
REMARK  107  A    between atoms: _259  and  _260
REMARK  108  A    between atoms: _259  and  _262
REMARK  109  A    between atoms: _262  and  _263
REMARK  110  A    between atoms: _268  and  _270
REMARK  111  A    between atoms: _270  and  _271
REMARK  112  A    between atoms: _270  and  _273
REMARK  113  A    between atoms: _273  and  _274
REMARK  114  A    between atoms: _274  and  _275
REMARK  115  A    between atoms: _275  and  _276
REMARK  116  A    between atoms: _285  and  _287
REMARK  117  A    between atoms: _287  and  _288
REMARK  118  A    between atoms: _287  and  _290
REMARK  119  A    between atoms: _290  and  _291
REMARK  120  A    between atoms: _294  and  _296
REMARK  121  A    between atoms: _296  and  _297
REMARK  122  A    between atoms: _296  and  _299
REMARK  123  A    between atoms: _299  and  _300
REMARK  124  A    between atoms: _303  and  _305
REMARK  125  A    between atoms: _305  and  _306
REMARK  126  A    between atoms: _305  and  _308
REMARK  127  A    between atoms: _308  and  _309
REMARK  128  A    between atoms: _312  and  _314
REMARK  129  A    between atoms: _314  and  _315
REMARK  130  A    between atoms: _314  and  _317
REMARK  131  A    between atoms: _317  and  _318
REMARK  132  A    between atoms: _321  and  _323
REMARK  133  A    between atoms: _323  and  _324
REMARK  134  A    between atoms: _326  and  _328
REMARK  135  A    between atoms: _328  and  _329
REMARK  136  A    between atoms: _332  and  _334
REMARK  137  A    between atoms: _334  and  _335
REMARK  138  A    between atoms: _334  and  _337
REMARK  139  A    between atoms: _337  and  _338
REMARK  140  A    between atoms: _341  and  _343
REMARK  141  A    between atoms: _343  and  _344
REMARK  142  A    between atoms: _343  and  _346
REMARK  143  A    between atoms: _346  and  _347
REMARK  144  A    between atoms: _350  and  _352
REMARK  145  A    between atoms: _352  and  _353
REMARK  146  A    between atoms: _352  and  _355
REMARK  147  A    between atoms: _355  and  _356
REMARK  148  A    between atoms: _359  and  _361
REMARK  149  A    between atoms: _361  and  _362
REMARK  150  A    between atoms: _361  and  _364
REMARK  151  A    between atoms: _367  and  _369
REMARK  152  A    between atoms: _369  and  _370
REMARK  153  A    between atoms: _369  and  _372
REMARK  154  A    between atoms: _372  and  _373
REMARK  155  A    between atoms: _373  and  _374
REMARK  156  A    between atoms: _376  and  _378
REMARK  157  A    between atoms: _378  and  _379
REMARK  158  A    between atoms: _378  and  _381
REMARK  159  A    between atoms: _381  and  _382
REMARK  160  A    between atoms: _385  and  _387
REMARK  161  A    between atoms: _387  and  _388
REMARK  162  A    between atoms: _390  and  _392
REMARK  163  A    between atoms: _392  and  _393
REMARK  164  A    between atoms: _395  and  _397
REMARK  165  A    between atoms: _397  and  _398
REMARK  166  A    between atoms: _397  and  _400
REMARK  167  A    between atoms: _400  and  _401
REMARK  168  A    between atoms: _404  and  _406
REMARK  169  A    between atoms: _406  and  _407
REMARK  170  A    between atoms: _409  and  _411
REMARK  171  A    between atoms: _411  and  _412
REMARK  172  A    between atoms: _414  and  _416
REMARK  173  A    between atoms: _416  and  _417
REMARK  174  A    between atoms: _416  and  _419
REMARK  175  A    between atoms: _419  and  _420
REMARK  176  A    between atoms: _426  and  _428
REMARK  177  A    between atoms: _428  and  _429
REMARK  178  A    between atoms: _428  and  _431
REMARK  179  A    between atoms: _431  and  _432
REMARK  180  A    between atoms: _435  and  _437
REMARK  181  A    between atoms: _437  and  _438
REMARK  182  A    between atoms: _437  and  _440
REMARK  183  A    between atoms: _443  and  _445
REMARK  184  A    between atoms: _445  and  _446
REMARK  185  A    between atoms: _445  and  _448
REMARK  186  A    between atoms: _448  and  _449
REMARK  187  A    between atoms: _452  and  _454
REMARK  188  A    between atoms: _454  and  _455
REMARK  189  A    between atoms: _454  and  _457
REMARK  190  A    between atoms: _457  and  _458
REMARK  191  A    between atoms: _462  and  _463
REMARK  192  A    between atoms: _468  and  _470
REMARK  193  A    between atoms: _470  and  _471
REMARK  194  A    between atoms: _470  and  _473
REMARK  195  A    between atoms: _473  and  _474
REMARK  196  A    between atoms: _477  and  _479
REMARK  197  A    between atoms: _479  and  _480
REMARK  198  A    between atoms: _479  and  _482
REMARK  199  A    between atoms: _482  and  _483
REMARK  200  A    between atoms: _488  and  _490
REMARK  201  A    between atoms: _490  and  _491
REMARK  202  A    between atoms: _490  and  _493
REMARK  203  A    between atoms: _496  and  _498
REMARK  204  A    between atoms: _498  and  _499
REMARK  205  A    between atoms: _498  and  _501
REMARK  206  A    between atoms: _501  and  _502
REMARK  207  A    between atoms: _505  and  _507
REMARK  208  A    between atoms: _507  and  _508
REMARK  209  A    between atoms: _510  and  _512
REMARK  210  A    between atoms: _512  and  _513
REMARK  211  A    between atoms: _512  and  _515
REMARK  212  A    between atoms: _515  and  _516
REMARK  213  A    between atoms: _516  and  _517
REMARK  214  A    between atoms: _517  and  _518
REMARK  215  A    between atoms: _527  and  _529
REMARK  216  A    between atoms: _529  and  _530
REMARK  217  A    between atoms: _529  and  _532
REMARK  218  A    between atoms: _532  and  _533
REMARK                            x       y       z     vdW  Elec       q    Type
REMARK                         _______ _______ _______ _____ _____    ______ ____
ROOT
ATOM      1  O   HOH     1      -8.459  18.729  13.086  0.00  0.00    +0.000 OA
ENDROOT
TORSDOF 0
REMARK  Name = ../refined-set-2016/1izi/1izi_pocket.pdb
REMARK  218 active torsions:
REMARK  status: ('A' for Active; 'I' for Inactive)
REMARK    1  A    between atoms: _1  and  _3
REMARK    2  A    between atoms: _3  and  _4
REMARK    3  A    between atoms: _3  and  _6
REMARK    4  A    between atoms: _6  and  _7
REMARK    5  A    between atoms: _7  and  _8
REMARK    6  A    between atoms: _8  and  _9
REMARK    7  A    between atoms: _18  and  _20
REMARK    8  A    between atoms: _20  and  _21
REMARK    9  A    between atoms: _20  and  _23
REMARK   10  A    between atoms: _23  and  _24
REMARK   11  A    between atoms: _27  and  _29
REMARK   12  A    between atoms: _29  and  _30
REMARK   13  A    between atoms: _29  and  _32
REMARK   14  A    between atoms: _32  and  _33
REMARK   15  A    between atoms: _36  and  _38
REMARK   16  A    between atoms: _38  and  _39
REMARK   17  A    between atoms: _38  and  _41
REMARK   18  A    between atoms: _41  and  _42
REMARK   19  A    between atoms: _45  and  _47
REMARK   20  A    between atoms: _47  and  _48
REMARK   21  A    between atoms: _47  and  _50
REMARK   22  A    between atoms: _50  and  _51
REMARK   23  A    between atoms: _54  and  _56
REMARK   24  A    between atoms: _56  and  _57
REMARK   25  A    between atoms: _59  and  _61
REMARK   26  A    between atoms: _61  and  _62
REMARK   27  A    between atoms: _65  and  _67
REMARK   28  A    between atoms: _67  and  _68
REMARK   29  A    between atoms: _67  and  _70
REMARK   30  A    between atoms: _70  and  _71
REMARK   31  A    between atoms: _74  and  _76
REMARK   32  A    between atoms: _76  and  _77
REMARK   33  A    between atoms: _76  and  _79
REMARK   34  A    between atoms: _79  and  _80
REMARK   35  A    between atoms: _83  and  _85
REMARK   36  A    between atoms: _85  and  _86
REMARK   37  A    between atoms: _85  and  _88
REMARK   38  A    between atoms: _88  and  _89
REMARK   39  A    between atoms: _92  and  _94
REMARK   40  A    between atoms: _94  and  _95
REMARK   41  A    between atoms: _94  and  _97
REMARK   42  A    between atoms: _100  and  _102
REMARK   43  A    between atoms: _102  and  _103
REMARK   44  A    between atoms: _102  and  _105
REMARK   45  A    between atoms: _105  and  _106
REMARK   46  A    between atoms: _109  and  _111
REMARK   47  A    between atoms: _111  and  _112
REMARK   48  A    between atoms: _111  and  _114
REMARK   49  A    between atoms: _114  and  _115
REMARK   50  A    between atoms: _115  and  _116
REMARK   51  A    between atoms: _118  and  _120
REMARK   52  A    between atoms: _120  and  _121
REMARK   53  A    between atoms: _120  and  _123
REMARK   54  A    between atoms: _123  and  _124
REMARK   55  A    between atoms: _127  and  _129
REMARK   56  A    between atoms: _129  and  _130
REMARK   57  A    between atoms: _132  and  _134
REMARK   58  A    between atoms: _134  and  _135
REMARK   59  A    between atoms: _137  and  _139
REMARK   60  A    between atoms: _139  and  _140
REMARK   61  A    between atoms: _139  and  _142
REMARK   62  A    between atoms: _142  and  _143
REMARK   63  A    between atoms: _146  and  _148
REMARK   64  A    between atoms: _148  and  _149
REMARK   65  A    between atoms: _151  and  _153
REMARK   66  A    between atoms: _153  and  _154
REMARK   67  A    between atoms: _156  and  _158
REMARK   68  A    between atoms: _158  and  _159
REMARK   69  A    between atoms: _158  and  _161
REMARK   70  A    between atoms: _161  and  _162
REMARK   71  A    between atoms: _165  and  _167
REMARK   72  A    between atoms: _167  and  _168
REMARK   73  A    between atoms: _167  and  _170
REMARK   74  A    between atoms: _173  and  _175
REMARK   75  A    between atoms: _175  and  _176
REMARK   76  A    between atoms: _175  and  _178
REMARK   77  A    between atoms: _178  and  _179
REMARK   78  A    between atoms: _182  and  _184
REMARK   79  A    between atoms: _184  and  _185
REMARK   80  A    between atoms: _184  and  _187
REMARK   81  A    between atoms: _187  and  _188
REMARK   82  A    between atoms: _192  and  _193
REMARK   83  A    between atoms: _198  and  _200
REMARK   84  A    between atoms: _200  and  _201
REMARK   85  A    between atoms: _200  and  _203
REMARK   86  A    between atoms: _203  and  _204
REMARK   87  A    between atoms: _207  and  _209
REMARK   88  A    between atoms: _209  and  _210
REMARK   89  A    between atoms: _209  and  _212
REMARK   90  A    between atoms: _212  and  _213
REMARK   91  A    between atoms: _218  and  _220
REMARK   92  A    between atoms: _220  and  _221
REMARK   93  A    between atoms: _220  and  _223
REMARK   94  A    between atoms: _226  and  _228
REMARK   95  A    between atoms: _228  and  _229
REMARK   96  A    between atoms: _228  and  _231
REMARK   97  A    between atoms: _231  and  _232
REMARK   98  A    between atoms: _235  and  _237
REMARK   99  A    between atoms: _237  and  _238
REMARK  100  A    between atoms: _240  and  _242
REMARK  101  A    between atoms: _242  and  _243
REMARK  102  A    between atoms: _242  and  _245
REMARK  103  A    between atoms: _245  and  _246
REMARK  104  A    between atoms: _246  and  _247
REMARK  105  A    between atoms: _247  and  _248
REMARK  106  A    between atoms: _257  and  _259
REMARK  107  A    between atoms: _259  and  _260
REMARK  108  A    between atoms: _259  and  _262
REMARK  109  A    between atoms: _262  and  _263
REMARK  110  A    between atoms: _268  and  _270
REMARK  111  A    between atoms: _270  and  _271
REMARK  112  A    between atoms: _270  and  _273
REMARK  113  A    between atoms: _273  and  _274
REMARK  114  A    between atoms: _274  and  _275
REMARK  115  A    between atoms: _275  and  _276
REMARK  116  A    between atoms: _285  and  _287
REMARK  117  A    between atoms: _287  and  _288
REMARK  118  A    between atoms: _287  and  _290
REMARK  119  A    between atoms: _290  and  _291
REMARK  120  A    between atoms: _294  and  _296
REMARK  121  A    between atoms: _296  and  _297
REMARK  122  A    between atoms: _296  and  _299
REMARK  123  A    between atoms: _299  and  _300
REMARK  124  A    between atoms: _303  and  _305
REMARK  125  A    between atoms: _305  and  _306
REMARK  126  A    between atoms: _305  and  _308
REMARK  127  A    between atoms: _308  and  _309
REMARK  128  A    between atoms: _312  and  _314
REMARK  129  A    between atoms: _314  and  _315
REMARK  130  A    between atoms: _314  and  _317
REMARK  131  A    between atoms: _317  and  _318
REMARK  132  A    between atoms: _321  and  _323
REMARK  133  A    between atoms: _323  and  _324
REMARK  134  A    between atoms: _326  and  _328
REMARK  135  A    between atoms: _328  and  _329
REMARK  136  A    between atoms: _332  and  _334
REMARK  137  A    between atoms: _334  and  _335
REMARK  138  A    between atoms: _334  and  _337
REMARK  139  A    between atoms: _337  and  _338
REMARK  140  A    between atoms: _341  and  _343
REMARK  141  A    between atoms: _343  and  _344
REMARK  142  A    between atoms: _343  and  _346
REMARK  143  A    between atoms: _346  and  _347
REMARK  144  A    between atoms: _350  and  _352
REMARK  145  A    between atoms: _352  and  _353
REMARK  146  A    between atoms: _352  and  _355
REMARK  147  A    between atoms: _355  and  _356
REMARK  148  A    between atoms: _359  and  _361
REMARK  149  A    between atoms: _361  and  _362
REMARK  150  A    between atoms: _361  and  _364
REMARK  151  A    between atoms: _367  and  _369
REMARK  152  A    between atoms: _369  and  _370
REMARK  153  A    between atoms: _369  and  _372
REMARK  154  A    between atoms: _372  and  _373
REMARK  155  A    between atoms: _373  and  _374
REMARK  156  A    between atoms: _376  and  _378
REMARK  157  A    between atoms: _378  and  _379
REMARK  158  A    between atoms: _378  and  _381
REMARK  159  A    between atoms: _381  and  _382
REMARK  160  A    between atoms: _385  and  _387
REMARK  161  A    between atoms: _387  and  _388
REMARK  162  A    between atoms: _390  and  _392
REMARK  163  A    between atoms: _392  and  _393
REMARK  164  A    between atoms: _395  and  _397
REMARK  165  A    between atoms: _397  and  _398
REMARK  166  A    between atoms: _397  and  _400
REMARK  167  A    between atoms: _400  and  _401
REMARK  168  A    between atoms: _404  and  _406
REMARK  169  A    between atoms: _406  and  _407
REMARK  170  A    between atoms: _409  and  _411
REMARK  171  A    between atoms: _411  and  _412
REMARK  172  A    between atoms: _414  and  _416
REMARK  173  A    between atoms: _416  and  _417
REMARK  174  A    between atoms: _416  and  _419
REMARK  175  A    between atoms: _419  and  _420
REMARK  176  A    between atoms: _426  and  _428
REMARK  177  A    between atoms: _428  and  _429
REMARK  178  A    between atoms: _428  and  _431
REMARK  179  A    between atoms: _431  and  _432
REMARK  180  A    between atoms: _435  and  _437
REMARK  181  A    between atoms: _437  and  _438
REMARK  182  A    between atoms: _437  and  _440
REMARK  183  A    between atoms: _443  and  _445
REMARK  184  A    between atoms: _445  and  _446
REMARK  185  A    between atoms: _445  and  _448
REMARK  186  A    between atoms: _448  and  _449
REMARK  187  A    between atoms: _452  and  _454
REMARK  188  A    between atoms: _454  and  _455
REMARK  189  A    between atoms: _454  and  _457
REMARK  190  A    between atoms: _457  and  _458
REMARK  191  A    between atoms: _462  and  _463
REMARK  192  A    between atoms: _468  and  _470
REMARK  193  A    between atoms: _470  and  _471
REMARK  194  A    between atoms: _470  and  _473
REMARK  195  A    between atoms: _473  and  _474
REMARK  196  A    between atoms: _477  and  _479
REMARK  197  A    between atoms: _479  and  _480
REMARK  198  A    between atoms: _479  and  _482
REMARK  199  A    between atoms: _482  and  _483
REMARK  200  A    between atoms: _488  and  _490
REMARK  201  A    between atoms: _490  and  _491
REMARK  202  A    between atoms: _490  and  _493
REMARK  203  A    between atoms: _496  and  _498
REMARK  204  A    between atoms: _498  and  _499
REMARK  205  A    between atoms: _498  and  _501
REMARK  206  A    between atoms: _501  and  _502
REMARK  207  A    between atoms: _505  and  _507
REMARK  208  A    between atoms: _507  and  _508
REMARK  209  A    between atoms: _510  and  _512
REMARK  210  A    between atoms: _512  and  _513
REMARK  211  A    between atoms: _512  and  _515
REMARK  212  A    between atoms: _515  and  _516
REMARK  213  A    between atoms: _516  and  _517
REMARK  214  A    between atoms: _517  and  _518
REMARK  215  A    between atoms: _527  and  _529
REMARK  216  A    between atoms: _529  and  _530
REMARK  217  A    between atoms: _529  and  _532
REMARK  218  A    between atoms: _532  and  _533
REMARK                            x       y       z     vdW  Elec       q    Type
REMARK                         _______ _______ _______ _____ _____    ______ ____
ROOT
ATOM      1  O   HOH     1     -10.938  17.796  14.326  0.00  0.00    +0.000 OA
ENDROOT
TORSDOF 0
REMARK  Name = ../refined-set-2016/1izi/1izi_pocket.pdb
REMARK  218 active torsions:
REMARK  status: ('A' for Active; 'I' for Inactive)
REMARK    1  A    between atoms: _1  and  _3
REMARK    2  A    between atoms: _3  and  _4
REMARK    3  A    between atoms: _3  and  _6
REMARK    4  A    between atoms: _6  and  _7
REMARK    5  A    between atoms: _7  and  _8
REMARK    6  A    between atoms: _8  and  _9
REMARK    7  A    between atoms: _18  and  _20
REMARK    8  A    between atoms: _20  and  _21
REMARK    9  A    between atoms: _20  and  _23
REMARK   10  A    between atoms: _23  and  _24
REMARK   11  A    between atoms: _27  and  _29
REMARK   12  A    between atoms: _29  and  _30
REMARK   13  A    between atoms: _29  and  _32
REMARK   14  A    between atoms: _32  and  _33
REMARK   15  A    between atoms: _36  and  _38
REMARK   16  A    between atoms: _38  and  _39
REMARK   17  A    between atoms: _38  and  _41
REMARK   18  A    between atoms: _41  and  _42
REMARK   19  A    between atoms: _45  and  _47
REMARK   20  A    between atoms: _47  and  _48
REMARK   21  A    between atoms: _47  and  _50
REMARK   22  A    between atoms: _50  and  _51
REMARK   23  A    between atoms: _54  and  _56
REMARK   24  A    between atoms: _56  and  _57
REMARK   25  A    between atoms: _59  and  _61
REMARK   26  A    between atoms: _61  and  _62
REMARK   27  A    between atoms: _65  and  _67
REMARK   28  A    between atoms: _67  and  _68
REMARK   29  A    between atoms: _67  and  _70
REMARK   30  A    between atoms: _70  and  _71
REMARK   31  A    between atoms: _74  and  _76
REMARK   32  A    between atoms: _76  and  _77
REMARK   33  A    between atoms: _76  and  _79
REMARK   34  A    between atoms: _79  and  _80
REMARK   35  A    between atoms: _83  and  _85
REMARK   36  A    between atoms: _85  and  _86
REMARK   37  A    between atoms: _85  and  _88
REMARK   38  A    between atoms: _88  and  _89
REMARK   39  A    between atoms: _92  and  _94
REMARK   40  A    between atoms: _94  and  _95
REMARK   41  A    between atoms: _94  and  _97
REMARK   42  A    between atoms: _100  and  _102
REMARK   43  A    between atoms: _102  and  _103
REMARK   44  A    between atoms: _102  and  _105
REMARK   45  A    between atoms: _105  and  _106
REMARK   46  A    between atoms: _109  and  _111
REMARK   47  A    between atoms: _111  and  _112
REMARK   48  A    between atoms: _111  and  _114
REMARK   49  A    between atoms: _114  and  _115
REMARK   50  A    between atoms: _115  and  _116
REMARK   51  A    between atoms: _118  and  _120
REMARK   52  A    between atoms: _120  and  _121
REMARK   53  A    between atoms: _120  and  _123
REMARK   54  A    between atoms: _123  and  _124
REMARK   55  A    between atoms: _127  and  _129
REMARK   56  A    between atoms: _129  and  _130
REMARK   57  A    between atoms: _132  and  _134
REMARK   58  A    between atoms: _134  and  _135
REMARK   59  A    between atoms: _137  and  _139
REMARK   60  A    between atoms: _139  and  _140
REMARK   61  A    between atoms: _139  and  _142
REMARK   62  A    between atoms: _142  and  _143
REMARK   63  A    between atoms: _146  and  _148
REMARK   64  A    between atoms: _148  and  _149
REMARK   65  A    between atoms: _151  and  _153
REMARK   66  A    between atoms: _153  and  _154
REMARK   67  A    between atoms: _156  and  _158
REMARK   68  A    between atoms: _158  and  _159
REMARK   69  A    between atoms: _158  and  _161
REMARK   70  A    between atoms: _161  and  _162
REMARK   71  A    between atoms: _165  and  _167
REMARK   72  A    between atoms: _167  and  _168
REMARK   73  A    between atoms: _167  and  _170
REMARK   74  A    between atoms: _173  and  _175
REMARK   75  A    between atoms: _175  and  _176
REMARK   76  A    between atoms: _175  and  _178
REMARK   77  A    between atoms: _178  and  _179
REMARK   78  A    between atoms: _182  and  _184
REMARK   79  A    between atoms: _184  and  _185
REMARK   80  A    between atoms: _184  and  _187
REMARK   81  A    between atoms: _187  and  _188
REMARK   82  A    between atoms: _192  and  _193
REMARK   83  A    between atoms: _198  and  _200
REMARK   84  A    between atoms: _200  and  _201
REMARK   85  A    between atoms: _200  and  _203
REMARK   86  A    between atoms: _203  and  _204
REMARK   87  A    between atoms: _207  and  _209
REMARK   88  A    between atoms: _209  and  _210
REMARK   89  A    between atoms: _209  and  _212
REMARK   90  A    between atoms: _212  and  _213
REMARK   91  A    between atoms: _218  and  _220
REMARK   92  A    between atoms: _220  and  _221
REMARK   93  A    between atoms: _220  and  _223
REMARK   94  A    between atoms: _226  and  _228
REMARK   95  A    between atoms: _228  and  _229
REMARK   96  A    between atoms: _228  and  _231
REMARK   97  A    between atoms: _231  and  _232
REMARK   98  A    between atoms: _235  and  _237
REMARK   99  A    between atoms: _237  and  _238
REMARK  100  A    between atoms: _240  and  _242
REMARK  101  A    between atoms: _242  and  _243
REMARK  102  A    between atoms: _242  and  _245
REMARK  103  A    between atoms: _245  and  _246
REMARK  104  A    between atoms: _246  and  _247
REMARK  105  A    between atoms: _247  and  _248
REMARK  106  A    between atoms: _257  and  _259
REMARK  107  A    between atoms: _259  and  _260
REMARK  108  A    between atoms: _259  and  _262
REMARK  109  A    between atoms: _262  and  _263
REMARK  110  A    between atoms: _268  and  _270
REMARK  111  A    between atoms: _270  and  _271
REMARK  112  A    between atoms: _270  and  _273
REMARK  113  A    between atoms: _273  and  _274
REMARK  114  A    between atoms: _274  and  _275
REMARK  115  A    between atoms: _275  and  _276
REMARK  116  A    between atoms: _285  and  _287
REMARK  117  A    between atoms: _287  and  _288
REMARK  118  A    between atoms: _287  and  _290
REMARK  119  A    between atoms: _290  and  _291
REMARK  120  A    between atoms: _294  and  _296
REMARK  121  A    between atoms: _296  and  _297
REMARK  122  A    between atoms: _296  and  _299
REMARK  123  A    between atoms: _299  and  _300
REMARK  124  A    between atoms: _303  and  _305
REMARK  125  A    between atoms: _305  and  _306
REMARK  126  A    between atoms: _305  and  _308
REMARK  127  A    between atoms: _308  and  _309
REMARK  128  A    between atoms: _312  and  _314
REMARK  129  A    between atoms: _314  and  _315
REMARK  130  A    between atoms: _314  and  _317
REMARK  131  A    between atoms: _317  and  _318
REMARK  132  A    between atoms: _321  and  _323
REMARK  133  A    between atoms: _323  and  _324
REMARK  134  A    between atoms: _326  and  _328
REMARK  135  A    between atoms: _328  and  _329
REMARK  136  A    between atoms: _332  and  _334
REMARK  137  A    between atoms: _334  and  _335
REMARK  138  A    between atoms: _334  and  _337
REMARK  139  A    between atoms: _337  and  _338
REMARK  140  A    between atoms: _341  and  _343
REMARK  141  A    between atoms: _343  and  _344
REMARK  142  A    between atoms: _343  and  _346
REMARK  143  A    between atoms: _346  and  _347
REMARK  144  A    between atoms: _350  and  _352
REMARK  145  A    between atoms: _352  and  _353
REMARK  146  A    between atoms: _352  and  _355
REMARK  147  A    between atoms: _355  and  _356
REMARK  148  A    between atoms: _359  and  _361
REMARK  149  A    between atoms: _361  and  _362
REMARK  150  A    between atoms: _361  and  _364
REMARK  151  A    between atoms: _367  and  _369
REMARK  152  A    between atoms: _369  and  _370
REMARK  153  A    between atoms: _369  and  _372
REMARK  154  A    between atoms: _372  and  _373
REMARK  155  A    between atoms: _373  and  _374
REMARK  156  A    between atoms: _376  and  _378
REMARK  157  A    between atoms: _378  and  _379
REMARK  158  A    between atoms: _378  and  _381
REMARK  159  A    between atoms: _381  and  _382
REMARK  160  A    between atoms: _385  and  _387
REMARK  161  A    between atoms: _387  and  _388
REMARK  162  A    between atoms: _390  and  _392
REMARK  163  A    between atoms: _392  and  _393
REMARK  164  A    between atoms: _395  and  _397
REMARK  165  A    between atoms: _397  and  _398
REMARK  166  A    between atoms: _397  and  _400
REMARK  167  A    between atoms: _400  and  _401
REMARK  168  A    between atoms: _404  and  _406
REMARK  169  A    between atoms: _406  and  _407
REMARK  170  A    between atoms: _409  and  _411
REMARK  171  A    between atoms: _411  and  _412
REMARK  172  A    between atoms: _414  and  _416
REMARK  173  A    between atoms: _416  and  _417
REMARK  174  A    between atoms: _416  and  _419
REMARK  175  A    between atoms: _419  and  _420
REMARK  176  A    between atoms: _426  and  _428
REMARK  177  A    between atoms: _428  and  _429
REMARK  178  A    between atoms: _428  and  _431
REMARK  179  A    between atoms: _431  and  _432
REMARK  180  A    between atoms: _435  and  _437
REMARK  181  A    between atoms: _437  and  _438
REMARK  182  A    between atoms: _437  and  _440
REMARK  183  A    between atoms: _443  and  _445
REMARK  184  A    between atoms: _445  and  _446
REMARK  185  A    between atoms: _445  and  _448
REMARK  186  A    between atoms: _448  and  _449
REMARK  187  A    between atoms: _452  and  _454
REMARK  188  A    between atoms: _454  and  _455
REMARK  189  A    between atoms: _454  and  _457
REMARK  190  A    between atoms: _457  and  _458
REMARK  191  A    between atoms: _462  and  _463
REMARK  192  A    between atoms: _468  and  _470
REMARK  193  A    between atoms: _470  and  _471
REMARK  194  A    between atoms: _470  and  _473
REMARK  195  A    between atoms: _473  and  _474
REMARK  196  A    between atoms: _477  and  _479
REMARK  197  A    between atoms: _479  and  _480
REMARK  198  A    between atoms: _479  and  _482
REMARK  199  A    between atoms: _482  and  _483
REMARK  200  A    between atoms: _488  and  _490
REMARK  201  A    between atoms: _490  and  _491
REMARK  202  A    between atoms: _490  and  _493
REMARK  203  A    between atoms: _496  and  _498
REMARK  204  A    between atoms: _498  and  _499
REMARK  205  A    between atoms: _498  and  _501
REMARK  206  A    between atoms: _501  and  _502
REMARK  207  A    between atoms: _505  and  _507
REMARK  208  A    between atoms: _507  and  _508
REMARK  209  A    between atoms: _510  and  _512
REMARK  210  A    between atoms: _512  and  _513
REMARK  211  A    between atoms: _512  and  _515
REMARK  212  A    between atoms: _515  and  _516
REMARK  213  A    between atoms: _516  and  _517
REMARK  214  A    between atoms: _517  and  _518
REMARK  215  A    between atoms: _527  and  _529
REMARK  216  A    between atoms: _529  and  _530
REMARK  217  A    between atoms: _529  and  _532
REMARK  218  A    between atoms: _532  and  _533
REMARK                            x       y       z     vdW  Elec       q    Type
REMARK                         _______ _______ _______ _____ _____    ______ ____
ROOT
ATOM      1  O   HOH     1     -16.379  18.481   4.640  0.00  0.00    +0.000 OA
ENDROOT
TORSDOF 0
REMARK  Name = ../refined-set-2016/1izi/1izi_pocket.pdb
REMARK  218 active torsions:
REMARK  status: ('A' for Active; 'I' for Inactive)
REMARK    1  A    between atoms: _1  and  _3
REMARK    2  A    between atoms: _3  and  _4
REMARK    3  A    between atoms: _3  and  _6
REMARK    4  A    between atoms: _6  and  _7
REMARK    5  A    between atoms: _7  and  _8
REMARK    6  A    between atoms: _8  and  _9
REMARK    7  A    between atoms: _18  and  _20
REMARK    8  A    between atoms: _20  and  _21
REMARK    9  A    between atoms: _20  and  _23
REMARK   10  A    between atoms: _23  and  _24
REMARK   11  A    between atoms: _27  and  _29
REMARK   12  A    between atoms: _29  and  _30
REMARK   13  A    between atoms: _29  and  _32
REMARK   14  A    between atoms: _32  and  _33
REMARK   15  A    between atoms: _36  and  _38
REMARK   16  A    between atoms: _38  and  _39
REMARK   17  A    between atoms: _38  and  _41
REMARK   18  A    between atoms: _41  and  _42
REMARK   19  A    between atoms: _45  and  _47
REMARK   20  A    between atoms: _47  and  _48
REMARK   21  A    between atoms: _47  and  _50
REMARK   22  A    between atoms: _50  and  _51
REMARK   23  A    between atoms: _54  and  _56
REMARK   24  A    between atoms: _56  and  _57
REMARK   25  A    between atoms: _59  and  _61
REMARK   26  A    between atoms: _61  and  _62
REMARK   27  A    between atoms: _65  and  _67
REMARK   28  A    between atoms: _67  and  _68
REMARK   29  A    between atoms: _67  and  _70
REMARK   30  A    between atoms: _70  and  _71
REMARK   31  A    between atoms: _74  and  _76
REMARK   32  A    between atoms: _76  and  _77
REMARK   33  A    between atoms: _76  and  _79
REMARK   34  A    between atoms: _79  and  _80
REMARK   35  A    between atoms: _83  and  _85
REMARK   36  A    between atoms: _85  and  _86
REMARK   37  A    between atoms: _85  and  _88
REMARK   38  A    between atoms: _88  and  _89
REMARK   39  A    between atoms: _92  and  _94
REMARK   40  A    between atoms: _94  and  _95
REMARK   41  A    between atoms: _94  and  _97
REMARK   42  A    between atoms: _100  and  _102
REMARK   43  A    between atoms: _102  and  _103
REMARK   44  A    between atoms: _102  and  _105
REMARK   45  A    between atoms: _105  and  _106
REMARK   46  A    between atoms: _109  and  _111
REMARK   47  A    between atoms: _111  and  _112
REMARK   48  A    between atoms: _111  and  _114
REMARK   49  A    between atoms: _114  and  _115
REMARK   50  A    between atoms: _115  and  _116
REMARK   51  A    between atoms: _118  and  _120
REMARK   52  A    between atoms: _120  and  _121
REMARK   53  A    between atoms: _120  and  _123
REMARK   54  A    between atoms: _123  and  _124
REMARK   55  A    between atoms: _127  and  _129
REMARK   56  A    between atoms: _129  and  _130
REMARK   57  A    between atoms: _132  and  _134
REMARK   58  A    between atoms: _134  and  _135
REMARK   59  A    between atoms: _137  and  _139
REMARK   60  A    between atoms: _139  and  _140
REMARK   61  A    between atoms: _139  and  _142
REMARK   62  A    between atoms: _142  and  _143
REMARK   63  A    between atoms: _146  and  _148
REMARK   64  A    between atoms: _148  and  _149
REMARK   65  A    between atoms: _151  and  _153
REMARK   66  A    between atoms: _153  and  _154
REMARK   67  A    between atoms: _156  and  _158
REMARK   68  A    between atoms: _158  and  _159
REMARK   69  A    between atoms: _158  and  _161
REMARK   70  A    between atoms: _161  and  _162
REMARK   71  A    between atoms: _165  and  _167
REMARK   72  A    between atoms: _167  and  _168
REMARK   73  A    between atoms: _167  and  _170
REMARK   74  A    between atoms: _173  and  _175
REMARK   75  A    between atoms: _175  and  _176
REMARK   76  A    between atoms: _175  and  _178
REMARK   77  A    between atoms: _178  and  _179
REMARK   78  A    between atoms: _182  and  _184
REMARK   79  A    between atoms: _184  and  _185
REMARK   80  A    between atoms: _184  and  _187
REMARK   81  A    between atoms: _187  and  _188
REMARK   82  A    between atoms: _192  and  _193
REMARK   83  A    between atoms: _198  and  _200
REMARK   84  A    between atoms: _200  and  _201
REMARK   85  A    between atoms: _200  and  _203
REMARK   86  A    between atoms: _203  and  _204
REMARK   87  A    between atoms: _207  and  _209
REMARK   88  A    between atoms: _209  and  _210
REMARK   89  A    between atoms: _209  and  _212
REMARK   90  A    between atoms: _212  and  _213
REMARK   91  A    between atoms: _218  and  _220
REMARK   92  A    between atoms: _220  and  _221
REMARK   93  A    between atoms: _220  and  _223
REMARK   94  A    between atoms: _226  and  _228
REMARK   95  A    between atoms: _228  and  _229
REMARK   96  A    between atoms: _228  and  _231
REMARK   97  A    between atoms: _231  and  _232
REMARK   98  A    between atoms: _235  and  _237
REMARK   99  A    between atoms: _237  and  _238
REMARK  100  A    between atoms: _240  and  _242
REMARK  101  A    between atoms: _242  and  _243
REMARK  102  A    between atoms: _242  and  _245
REMARK  103  A    between atoms: _245  and  _246
REMARK  104  A    between atoms: _246  and  _247
REMARK  105  A    between atoms: _247  and  _248
REMARK  106  A    between atoms: _257  and  _259
REMARK  107  A    between atoms: _259  and  _260
REMARK  108  A    between atoms: _259  and  _262
REMARK  109  A    between atoms: _262  and  _263
REMARK  110  A    between atoms: _268  and  _270
REMARK  111  A    between atoms: _270  and  _271
REMARK  112  A    between atoms: _270  and  _273
REMARK  113  A    between atoms: _273  and  _274
REMARK  114  A    between atoms: _274  and  _275
REMARK  115  A    between atoms: _275  and  _276
REMARK  116  A    between atoms: _285  and  _287
REMARK  117  A    between atoms: _287  and  _288
REMARK  118  A    between atoms: _287  and  _290
REMARK  119  A    between atoms: _290  and  _291
REMARK  120  A    between atoms: _294  and  _296
REMARK  121  A    between atoms: _296  and  _297
REMARK  122  A    between atoms: _296  and  _299
REMARK  123  A    between atoms: _299  and  _300
REMARK  124  A    between atoms: _303  and  _305
REMARK  125  A    between atoms: _305  and  _306
REMARK  126  A    between atoms: _305  and  _308
REMARK  127  A    between atoms: _308  and  _309
REMARK  128  A    between atoms: _312  and  _314
REMARK  129  A    between atoms: _314  and  _315
REMARK  130  A    between atoms: _314  and  _317
REMARK  131  A    between atoms: _317  and  _318
REMARK  132  A    between atoms: _321  and  _323
REMARK  133  A    between atoms: _323  and  _324
REMARK  134  A    between atoms: _326  and  _328
REMARK  135  A    between atoms: _328  and  _329
REMARK  136  A    between atoms: _332  and  _334
REMARK  137  A    between atoms: _334  and  _335
REMARK  138  A    between atoms: _334  and  _337
REMARK  139  A    between atoms: _337  and  _338
REMARK  140  A    between atoms: _341  and  _343
REMARK  141  A    between atoms: _343  and  _344
REMARK  142  A    between atoms: _343  and  _346
REMARK  143  A    between atoms: _346  and  _347
REMARK  144  A    between atoms: _350  and  _352
REMARK  145  A    between atoms: _352  and  _353
REMARK  146  A    between atoms: _352  and  _355
REMARK  147  A    between atoms: _355  and  _356
REMARK  148  A    between atoms: _359  and  _361
REMARK  149  A    between atoms: _361  and  _362
REMARK  150  A    between atoms: _361  and  _364
REMARK  151  A    between atoms: _367  and  _369
REMARK  152  A    between atoms: _369  and  _370
REMARK  153  A    between atoms: _369  and  _372
REMARK  154  A    between atoms: _372  and  _373
REMARK  155  A    between atoms: _373  and  _374
REMARK  156  A    between atoms: _376  and  _378
REMARK  157  A    between atoms: _378  and  _379
REMARK  158  A    between atoms: _378  and  _381
REMARK  159  A    between atoms: _381  and  _382
REMARK  160  A    between atoms: _385  and  _387
REMARK  161  A    between atoms: _387  and  _388
REMARK  162  A    between atoms: _390  and  _392
REMARK  163  A    between atoms: _392  and  _393
REMARK  164  A    between atoms: _395  and  _397
REMARK  165  A    between atoms: _397  and  _398
REMARK  166  A    between atoms: _397  and  _400
REMARK  167  A    between atoms: _400  and  _401
REMARK  168  A    between atoms: _404  and  _406
REMARK  169  A    between atoms: _406  and  _407
REMARK  170  A    between atoms: _409  and  _411
REMARK  171  A    between atoms: _411  and  _412
REMARK  172  A    between atoms: _414  and  _416
REMARK  173  A    between atoms: _416  and  _417
REMARK  174  A    between atoms: _416  and  _419
REMARK  175  A    between atoms: _419  and  _420
REMARK  176  A    between atoms: _426  and  _428
REMARK  177  A    between atoms: _428  and  _429
REMARK  178  A    between atoms: _428  and  _431
REMARK  179  A    between atoms: _431  and  _432
REMARK  180  A    between atoms: _435  and  _437
REMARK  181  A    between atoms: _437  and  _438
REMARK  182  A    between atoms: _437  and  _440
REMARK  183  A    between atoms: _443  and  _445
REMARK  184  A    between atoms: _445  and  _446
REMARK  185  A    between atoms: _445  and  _448
REMARK  186  A    between atoms: _448  and  _449
REMARK  187  A    between atoms: _452  and  _454
REMARK  188  A    between atoms: _454  and  _455
REMARK  189  A    between atoms: _454  and  _457
REMARK  190  A    between atoms: _457  and  _458
REMARK  191  A    between atoms: _462  and  _463
REMARK  192  A    between atoms: _468  and  _470
REMARK  193  A    between atoms: _470  and  _471
REMARK  194  A    between atoms: _470  and  _473
REMARK  195  A    between atoms: _473  and  _474
REMARK  196  A    between atoms: _477  and  _479
REMARK  197  A    between atoms: _479  and  _480
REMARK  198  A    between atoms: _479  and  _482
REMARK  199  A    between atoms: _482  and  _483
REMARK  200  A    between atoms: _488  and  _490
REMARK  201  A    between atoms: _490  and  _491
REMARK  202  A    between atoms: _490  and  _493
REMARK  203  A    between atoms: _496  and  _498
REMARK  204  A    between atoms: _498  and  _499
REMARK  205  A    between atoms: _498  and  _501
REMARK  206  A    between atoms: _501  and  _502
REMARK  207  A    between atoms: _505  and  _507
REMARK  208  A    between atoms: _507  and  _508
REMARK  209  A    between atoms: _510  and  _512
REMARK  210  A    between atoms: _512  and  _513
REMARK  211  A    between atoms: _512  and  _515
REMARK  212  A    between atoms: _515  and  _516
REMARK  213  A    between atoms: _516  and  _517
REMARK  214  A    between atoms: _517  and  _518
REMARK  215  A    between atoms: _527  and  _529
REMARK  216  A    between atoms: _529  and  _530
REMARK  217  A    between atoms: _529  and  _532
REMARK  218  A    between atoms: _532  and  _533
REMARK                            x       y       z     vdW  Elec       q    Type
REMARK                         _______ _______ _______ _____ _____    ______ ____
ROOT
ATOM      1  O   HOH     1      -7.731  13.213   0.034  0.00  0.00    +0.000 OA
ENDROOT
TORSDOF 0
REMARK  Name = ../refined-set-2016/1izi/1izi_pocket.pdb
REMARK  218 active torsions:
REMARK  status: ('A' for Active; 'I' for Inactive)
REMARK    1  A    between atoms: _1  and  _3
REMARK    2  A    between atoms: _3  and  _4
REMARK    3  A    between atoms: _3  and  _6
REMARK    4  A    between atoms: _6  and  _7
REMARK    5  A    between atoms: _7  and  _8
REMARK    6  A    between atoms: _8  and  _9
REMARK    7  A    between atoms: _18  and  _20
REMARK    8  A    between atoms: _20  and  _21
REMARK    9  A    between atoms: _20  and  _23
REMARK   10  A    between atoms: _23  and  _24
REMARK   11  A    between atoms: _27  and  _29
REMARK   12  A    between atoms: _29  and  _30
REMARK   13  A    between atoms: _29  and  _32
REMARK   14  A    between atoms: _32  and  _33
REMARK   15  A    between atoms: _36  and  _38
REMARK   16  A    between atoms: _38  and  _39
REMARK   17  A    between atoms: _38  and  _41
REMARK   18  A    between atoms: _41  and  _42
REMARK   19  A    between atoms: _45  and  _47
REMARK   20  A    between atoms: _47  and  _48
REMARK   21  A    between atoms: _47  and  _50
REMARK   22  A    between atoms: _50  and  _51
REMARK   23  A    between atoms: _54  and  _56
REMARK   24  A    between atoms: _56  and  _57
REMARK   25  A    between atoms: _59  and  _61
REMARK   26  A    between atoms: _61  and  _62
REMARK   27  A    between atoms: _65  and  _67
REMARK   28  A    between atoms: _67  and  _68
REMARK   29  A    between atoms: _67  and  _70
REMARK   30  A    between atoms: _70  and  _71
REMARK   31  A    between atoms: _74  and  _76
REMARK   32  A    between atoms: _76  and  _77
REMARK   33  A    between atoms: _76  and  _79
REMARK   34  A    between atoms: _79  and  _80
REMARK   35  A    between atoms: _83  and  _85
REMARK   36  A    between atoms: _85  and  _86
REMARK   37  A    between atoms: _85  and  _88
REMARK   38  A    between atoms: _88  and  _89
REMARK   39  A    between atoms: _92  and  _94
REMARK   40  A    between atoms: _94  and  _95
REMARK   41  A    between atoms: _94  and  _97
REMARK   42  A    between atoms: _100  and  _102
REMARK   43  A    between atoms: _102  and  _103
REMARK   44  A    between atoms: _102  and  _105
REMARK   45  A    between atoms: _105  and  _106
REMARK   46  A    between atoms: _109  and  _111
REMARK   47  A    between atoms: _111  and  _112
REMARK   48  A    between atoms: _111  and  _114
REMARK   49  A    between atoms: _114  and  _115
REMARK   50  A    between atoms: _115  and  _116
REMARK   51  A    between atoms: _118  and  _120
REMARK   52  A    between atoms: _120  and  _121
REMARK   53  A    between atoms: _120  and  _123
REMARK   54  A    between atoms: _123  and  _124
REMARK   55  A    between atoms: _127  and  _129
REMARK   56  A    between atoms: _129  and  _130
REMARK   57  A    between atoms: _132  and  _134
REMARK   58  A    between atoms: _134  and  _135
REMARK   59  A    between atoms: _137  and  _139
REMARK   60  A    between atoms: _139  and  _140
REMARK   61  A    between atoms: _139  and  _142
REMARK   62  A    between atoms: _142  and  _143
REMARK   63  A    between atoms: _146  and  _148
REMARK   64  A    between atoms: _148  and  _149
REMARK   65  A    between atoms: _151  and  _153
REMARK   66  A    between atoms: _153  and  _154
REMARK   67  A    between atoms: _156  and  _158
REMARK   68  A    between atoms: _158  and  _159
REMARK   69  A    between atoms: _158  and  _161
REMARK   70  A    between atoms: _161  and  _162
REMARK   71  A    between atoms: _165  and  _167
REMARK   72  A    between atoms: _167  and  _168
REMARK   73  A    between atoms: _167  and  _170
REMARK   74  A    between atoms: _173  and  _175
REMARK   75  A    between atoms: _175  and  _176
REMARK   76  A    between atoms: _175  and  _178
REMARK   77  A    between atoms: _178  and  _179
REMARK   78  A    between atoms: _182  and  _184
REMARK   79  A    between atoms: _184  and  _185
REMARK   80  A    between atoms: _184  and  _187
REMARK   81  A    between atoms: _187  and  _188
REMARK   82  A    between atoms: _192  and  _193
REMARK   83  A    between atoms: _198  and  _200
REMARK   84  A    between atoms: _200  and  _201
REMARK   85  A    between atoms: _200  and  _203
REMARK   86  A    between atoms: _203  and  _204
REMARK   87  A    between atoms: _207  and  _209
REMARK   88  A    between atoms: _209  and  _210
REMARK   89  A    between atoms: _209  and  _212
REMARK   90  A    between atoms: _212  and  _213
REMARK   91  A    between atoms: _218  and  _220
REMARK   92  A    between atoms: _220  and  _221
REMARK   93  A    between atoms: _220  and  _223
REMARK   94  A    between atoms: _226  and  _228
REMARK   95  A    between atoms: _228  and  _229
REMARK   96  A    between atoms: _228  and  _231
REMARK   97  A    between atoms: _231  and  _232
REMARK   98  A    between atoms: _235  and  _237
REMARK   99  A    between atoms: _237  and  _238
REMARK  100  A    between atoms: _240  and  _242
REMARK  101  A    between atoms: _242  and  _243
REMARK  102  A    between atoms: _242  and  _245
REMARK  103  A    between atoms: _245  and  _246
REMARK  104  A    between atoms: _246  and  _247
REMARK  105  A    between atoms: _247  and  _248
REMARK  106  A    between atoms: _257  and  _259
REMARK  107  A    between atoms: _259  and  _260
REMARK  108  A    between atoms: _259  and  _262
REMARK  109  A    between atoms: _262  and  _263
REMARK  110  A    between atoms: _268  and  _270
REMARK  111  A    between atoms: _270  and  _271
REMARK  112  A    between atoms: _270  and  _273
REMARK  113  A    between atoms: _273  and  _274
REMARK  114  A    between atoms: _274  and  _275
REMARK  115  A    between atoms: _275  and  _276
REMARK  116  A    between atoms: _285  and  _287
REMARK  117  A    between atoms: _287  and  _288
REMARK  118  A    between atoms: _287  and  _290
REMARK  119  A    between atoms: _290  and  _291
REMARK  120  A    between atoms: _294  and  _296
REMARK  121  A    between atoms: _296  and  _297
REMARK  122  A    between atoms: _296  and  _299
REMARK  123  A    between atoms: _299  and  _300
REMARK  124  A    between atoms: _303  and  _305
REMARK  125  A    between atoms: _305  and  _306
REMARK  126  A    between atoms: _305  and  _308
REMARK  127  A    between atoms: _308  and  _309
REMARK  128  A    between atoms: _312  and  _314
REMARK  129  A    between atoms: _314  and  _315
REMARK  130  A    between atoms: _314  and  _317
REMARK  131  A    between atoms: _317  and  _318
REMARK  132  A    between atoms: _321  and  _323
REMARK  133  A    between atoms: _323  and  _324
REMARK  134  A    between atoms: _326  and  _328
REMARK  135  A    between atoms: _328  and  _329
REMARK  136  A    between atoms: _332  and  _334
REMARK  137  A    between atoms: _334  and  _335
REMARK  138  A    between atoms: _334  and  _337
REMARK  139  A    between atoms: _337  and  _338
REMARK  140  A    between atoms: _341  and  _343
REMARK  141  A    between atoms: _343  and  _344
REMARK  142  A    between atoms: _343  and  _346
REMARK  143  A    between atoms: _346  and  _347
REMARK  144  A    between atoms: _350  and  _352
REMARK  145  A    between atoms: _352  and  _353
REMARK  146  A    between atoms: _352  and  _355
REMARK  147  A    between atoms: _355  and  _356
REMARK  148  A    between atoms: _359  and  _361
REMARK  149  A    between atoms: _361  and  _362
REMARK  150  A    between atoms: _361  and  _364
REMARK  151  A    between atoms: _367  and  _369
REMARK  152  A    between atoms: _369  and  _370
REMARK  153  A    between atoms: _369  and  _372
REMARK  154  A    between atoms: _372  and  _373
REMARK  155  A    between atoms: _373  and  _374
REMARK  156  A    between atoms: _376  and  _378
REMARK  157  A    between atoms: _378  and  _379
REMARK  158  A    between atoms: _378  and  _381
REMARK  159  A    between atoms: _381  and  _382
REMARK  160  A    between atoms: _385  and  _387
REMARK  161  A    between atoms: _387  and  _388
REMARK  162  A    between atoms: _390  and  _392
REMARK  163  A    between atoms: _392  and  _393
REMARK  164  A    between atoms: _395  and  _397
REMARK  165  A    between atoms: _397  and  _398
REMARK  166  A    between atoms: _397  and  _400
REMARK  167  A    between atoms: _400  and  _401
REMARK  168  A    between atoms: _404  and  _406
REMARK  169  A    between atoms: _406  and  _407
REMARK  170  A    between atoms: _409  and  _411
REMARK  171  A    between atoms: _411  and  _412
REMARK  172  A    between atoms: _414  and  _416
REMARK  173  A    between atoms: _416  and  _417
REMARK  174  A    between atoms: _416  and  _419
REMARK  175  A    between atoms: _419  and  _420
REMARK  176  A    between atoms: _426  and  _428
REMARK  177  A    between atoms: _428  and  _429
REMARK  178  A    between atoms: _428  and  _431
REMARK  179  A    between atoms: _431  and  _432
REMARK  180  A    between atoms: _435  and  _437
REMARK  181  A    between atoms: _437  and  _438
REMARK  182  A    between atoms: _437  and  _440
REMARK  183  A    between atoms: _443  and  _445
REMARK  184  A    between atoms: _445  and  _446
REMARK  185  A    between atoms: _445  and  _448
REMARK  186  A    between atoms: _448  and  _449
REMARK  187  A    between atoms: _452  and  _454
REMARK  188  A    between atoms: _454  and  _455
REMARK  189  A    between atoms: _454  and  _457
REMARK  190  A    between atoms: _457  and  _458
REMARK  191  A    between atoms: _462  and  _463
REMARK  192  A    between atoms: _468  and  _470
REMARK  193  A    between atoms: _470  and  _471
REMARK  194  A    between atoms: _470  and  _473
REMARK  195  A    between atoms: _473  and  _474
REMARK  196  A    between atoms: _477  and  _479
REMARK  197  A    between atoms: _479  and  _480
REMARK  198  A    between atoms: _479  and  _482
REMARK  199  A    between atoms: _482  and  _483
REMARK  200  A    between atoms: _488  and  _490
REMARK  201  A    between atoms: _490  and  _491
REMARK  202  A    between atoms: _490  and  _493
REMARK  203  A    between atoms: _496  and  _498
REMARK  204  A    between atoms: _498  and  _499
REMARK  205  A    between atoms: _498  and  _501
REMARK  206  A    between atoms: _501  and  _502
REMARK  207  A    between atoms: _505  and  _507
REMARK  208  A    between atoms: _507  and  _508
REMARK  209  A    between atoms: _510  and  _512
REMARK  210  A    between atoms: _512  and  _513
REMARK  211  A    between atoms: _512  and  _515
REMARK  212  A    between atoms: _515  and  _516
REMARK  213  A    between atoms: _516  and  _517
REMARK  214  A    between atoms: _517  and  _518
REMARK  215  A    between atoms: _527  and  _529
REMARK  216  A    between atoms: _529  and  _530
REMARK  217  A    between atoms: _529  and  _532
REMARK  218  A    between atoms: _532  and  _533
REMARK                            x       y       z     vdW  Elec       q    Type
REMARK                         _______ _______ _______ _____ _____    ______ ____
ROOT
ATOM      1  O   HOH     1     -12.121  16.683 -13.016  0.00  0.00    +0.000 OA
ENDROOT
TORSDOF 0
REMARK  Name = ../refined-set-2016/1izi/1izi_pocket.pdb
REMARK  218 active torsions:
REMARK  status: ('A' for Active; 'I' for Inactive)
REMARK    1  A    between atoms: _1  and  _3
REMARK    2  A    between atoms: _3  and  _4
REMARK    3  A    between atoms: _3  and  _6
REMARK    4  A    between atoms: _6  and  _7
REMARK    5  A    between atoms: _7  and  _8
REMARK    6  A    between atoms: _8  and  _9
REMARK    7  A    between atoms: _18  and  _20
REMARK    8  A    between atoms: _20  and  _21
REMARK    9  A    between atoms: _20  and  _23
REMARK   10  A    between atoms: _23  and  _24
REMARK   11  A    between atoms: _27  and  _29
REMARK   12  A    between atoms: _29  and  _30
REMARK   13  A    between atoms: _29  and  _32
REMARK   14  A    between atoms: _32  and  _33
REMARK   15  A    between atoms: _36  and  _38
REMARK   16  A    between atoms: _38  and  _39
REMARK   17  A    between atoms: _38  and  _41
REMARK   18  A    between atoms: _41  and  _42
REMARK   19  A    between atoms: _45  and  _47
REMARK   20  A    between atoms: _47  and  _48
REMARK   21  A    between atoms: _47  and  _50
REMARK   22  A    between atoms: _50  and  _51
REMARK   23  A    between atoms: _54  and  _56
REMARK   24  A    between atoms: _56  and  _57
REMARK   25  A    between atoms: _59  and  _61
REMARK   26  A    between atoms: _61  and  _62
REMARK   27  A    between atoms: _65  and  _67
REMARK   28  A    between atoms: _67  and  _68
REMARK   29  A    between atoms: _67  and  _70
REMARK   30  A    between atoms: _70  and  _71
REMARK   31  A    between atoms: _74  and  _76
REMARK   32  A    between atoms: _76  and  _77
REMARK   33  A    between atoms: _76  and  _79
REMARK   34  A    between atoms: _79  and  _80
REMARK   35  A    between atoms: _83  and  _85
REMARK   36  A    between atoms: _85  and  _86
REMARK   37  A    between atoms: _85  and  _88
REMARK   38  A    between atoms: _88  and  _89
REMARK   39  A    between atoms: _92  and  _94
REMARK   40  A    between atoms: _94  and  _95
REMARK   41  A    between atoms: _94  and  _97
REMARK   42  A    between atoms: _100  and  _102
REMARK   43  A    between atoms: _102  and  _103
REMARK   44  A    between atoms: _102  and  _105
REMARK   45  A    between atoms: _105  and  _106
REMARK   46  A    between atoms: _109  and  _111
REMARK   47  A    between atoms: _111  and  _112
REMARK   48  A    between atoms: _111  and  _114
REMARK   49  A    between atoms: _114  and  _115
REMARK   50  A    between atoms: _115  and  _116
REMARK   51  A    between atoms: _118  and  _120
REMARK   52  A    between atoms: _120  and  _121
REMARK   53  A    between atoms: _120  and  _123
REMARK   54  A    between atoms: _123  and  _124
REMARK   55  A    between atoms: _127  and  _129
REMARK   56  A    between atoms: _129  and  _130
REMARK   57  A    between atoms: _132  and  _134
REMARK   58  A    between atoms: _134  and  _135
REMARK   59  A    between atoms: _137  and  _139
REMARK   60  A    between atoms: _139  and  _140
REMARK   61  A    between atoms: _139  and  _142
REMARK   62  A    between atoms: _142  and  _143
REMARK   63  A    between atoms: _146  and  _148
REMARK   64  A    between atoms: _148  and  _149
REMARK   65  A    between atoms: _151  and  _153
REMARK   66  A    between atoms: _153  and  _154
REMARK   67  A    between atoms: _156  and  _158
REMARK   68  A    between atoms: _158  and  _159
REMARK   69  A    between atoms: _158  and  _161
REMARK   70  A    between atoms: _161  and  _162
REMARK   71  A    between atoms: _165  and  _167
REMARK   72  A    between atoms: _167  and  _168
REMARK   73  A    between atoms: _167  and  _170
REMARK   74  A    between atoms: _173  and  _175
REMARK   75  A    between atoms: _175  and  _176
REMARK   76  A    between atoms: _175  and  _178
REMARK   77  A    between atoms: _178  and  _179
REMARK   78  A    between atoms: _182  and  _184
REMARK   79  A    between atoms: _184  and  _185
REMARK   80  A    between atoms: _184  and  _187
REMARK   81  A    between atoms: _187  and  _188
REMARK   82  A    between atoms: _192  and  _193
REMARK   83  A    between atoms: _198  and  _200
REMARK   84  A    between atoms: _200  and  _201
REMARK   85  A    between atoms: _200  and  _203
REMARK   86  A    between atoms: _203  and  _204
REMARK   87  A    between atoms: _207  and  _209
REMARK   88  A    between atoms: _209  and  _210
REMARK   89  A    between atoms: _209  and  _212
REMARK   90  A    between atoms: _212  and  _213
REMARK   91  A    between atoms: _218  and  _220
REMARK   92  A    between atoms: _220  and  _221
REMARK   93  A    between atoms: _220  and  _223
REMARK   94  A    between atoms: _226  and  _228
REMARK   95  A    between atoms: _228  and  _229
REMARK   96  A    between atoms: _228  and  _231
REMARK   97  A    between atoms: _231  and  _232
REMARK   98  A    between atoms: _235  and  _237
REMARK   99  A    between atoms: _237  and  _238
REMARK  100  A    between atoms: _240  and  _242
REMARK  101  A    between atoms: _242  and  _243
REMARK  102  A    between atoms: _242  and  _245
REMARK  103  A    between atoms: _245  and  _246
REMARK  104  A    between atoms: _246  and  _247
REMARK  105  A    between atoms: _247  and  _248
REMARK  106  A    between atoms: _257  and  _259
REMARK  107  A    between atoms: _259  and  _260
REMARK  108  A    between atoms: _259  and  _262
REMARK  109  A    between atoms: _262  and  _263
REMARK  110  A    between atoms: _268  and  _270
REMARK  111  A    between atoms: _270  and  _271
REMARK  112  A    between atoms: _270  and  _273
REMARK  113  A    between atoms: _273  and  _274
REMARK  114  A    between atoms: _274  and  _275
REMARK  115  A    between atoms: _275  and  _276
REMARK  116  A    between atoms: _285  and  _287
REMARK  117  A    between atoms: _287  and  _288
REMARK  118  A    between atoms: _287  and  _290
REMARK  119  A    between atoms: _290  and  _291
REMARK  120  A    between atoms: _294  and  _296
REMARK  121  A    between atoms: _296  and  _297
REMARK  122  A    between atoms: _296  and  _299
REMARK  123  A    between atoms: _299  and  _300
REMARK  124  A    between atoms: _303  and  _305
REMARK  125  A    between atoms: _305  and  _306
REMARK  126  A    between atoms: _305  and  _308
REMARK  127  A    between atoms: _308  and  _309
REMARK  128  A    between atoms: _312  and  _314
REMARK  129  A    between atoms: _314  and  _315
REMARK  130  A    between atoms: _314  and  _317
REMARK  131  A    between atoms: _317  and  _318
REMARK  132  A    between atoms: _321  and  _323
REMARK  133  A    between atoms: _323  and  _324
REMARK  134  A    between atoms: _326  and  _328
REMARK  135  A    between atoms: _328  and  _329
REMARK  136  A    between atoms: _332  and  _334
REMARK  137  A    between atoms: _334  and  _335
REMARK  138  A    between atoms: _334  and  _337
REMARK  139  A    between atoms: _337  and  _338
REMARK  140  A    between atoms: _341  and  _343
REMARK  141  A    between atoms: _343  and  _344
REMARK  142  A    between atoms: _343  and  _346
REMARK  143  A    between atoms: _346  and  _347
REMARK  144  A    between atoms: _350  and  _352
REMARK  145  A    between atoms: _352  and  _353
REMARK  146  A    between atoms: _352  and  _355
REMARK  147  A    between atoms: _355  and  _356
REMARK  148  A    between atoms: _359  and  _361
REMARK  149  A    between atoms: _361  and  _362
REMARK  150  A    between atoms: _361  and  _364
REMARK  151  A    between atoms: _367  and  _369
REMARK  152  A    between atoms: _369  and  _370
REMARK  153  A    between atoms: _369  and  _372
REMARK  154  A    between atoms: _372  and  _373
REMARK  155  A    between atoms: _373  and  _374
REMARK  156  A    between atoms: _376  and  _378
REMARK  157  A    between atoms: _378  and  _379
REMARK  158  A    between atoms: _378  and  _381
REMARK  159  A    between atoms: _381  and  _382
REMARK  160  A    between atoms: _385  and  _387
REMARK  161  A    between atoms: _387  and  _388
REMARK  162  A    between atoms: _390  and  _392
REMARK  163  A    between atoms: _392  and  _393
REMARK  164  A    between atoms: _395  and  _397
REMARK  165  A    between atoms: _397  and  _398
REMARK  166  A    between atoms: _397  and  _400
REMARK  167  A    between atoms: _400  and  _401
REMARK  168  A    between atoms: _404  and  _406
REMARK  169  A    between atoms: _406  and  _407
REMARK  170  A    between atoms: _409  and  _411
REMARK  171  A    between atoms: _411  and  _412
REMARK  172  A    between atoms: _414  and  _416
REMARK  173  A    between atoms: _416  and  _417
REMARK  174  A    between atoms: _416  and  _419
REMARK  175  A    between atoms: _419  and  _420
REMARK  176  A    between atoms: _426  and  _428
REMARK  177  A    between atoms: _428  and  _429
REMARK  178  A    between atoms: _428  and  _431
REMARK  179  A    between atoms: _431  and  _432
REMARK  180  A    between atoms: _435  and  _437
REMARK  181  A    between atoms: _437  and  _438
REMARK  182  A    between atoms: _437  and  _440
REMARK  183  A    between atoms: _443  and  _445
REMARK  184  A    between atoms: _445  and  _446
REMARK  185  A    between atoms: _445  and  _448
REMARK  186  A    between atoms: _448  and  _449
REMARK  187  A    between atoms: _452  and  _454
REMARK  188  A    between atoms: _454  and  _455
REMARK  189  A    between atoms: _454  and  _457
REMARK  190  A    between atoms: _457  and  _458
REMARK  191  A    between atoms: _462  and  _463
REMARK  192  A    between atoms: _468  and  _470
REMARK  193  A    between atoms: _470  and  _471
REMARK  194  A    between atoms: _470  and  _473
REMARK  195  A    between atoms: _473  and  _474
REMARK  196  A    between atoms: _477  and  _479
REMARK  197  A    between atoms: _479  and  _480
REMARK  198  A    between atoms: _479  and  _482
REMARK  199  A    between atoms: _482  and  _483
REMARK  200  A    between atoms: _488  and  _490
REMARK  201  A    between atoms: _490  and  _491
REMARK  202  A    between atoms: _490  and  _493
REMARK  203  A    between atoms: _496  and  _498
REMARK  204  A    between atoms: _498  and  _499
REMARK  205  A    between atoms: _498  and  _501
REMARK  206  A    between atoms: _501  and  _502
REMARK  207  A    between atoms: _505  and  _507
REMARK  208  A    between atoms: _507  and  _508
REMARK  209  A    between atoms: _510  and  _512
REMARK  210  A    between atoms: _512  and  _513
REMARK  211  A    between atoms: _512  and  _515
REMARK  212  A    between atoms: _515  and  _516
REMARK  213  A    between atoms: _516  and  _517
REMARK  214  A    between atoms: _517  and  _518
REMARK  215  A    between atoms: _527  and  _529
REMARK  216  A    between atoms: _529  and  _530
REMARK  217  A    between atoms: _529  and  _532
REMARK  218  A    between atoms: _532  and  _533
REMARK                            x       y       z     vdW  Elec       q    Type
REMARK                         _______ _______ _______ _____ _____    ______ ____
ROOT
ATOM      1  O   HOH     1      -7.703  23.371  -4.308  0.00  0.00    +0.000 OA
ENDROOT
TORSDOF 0
REMARK  Name = ../refined-set-2016/1izi/1izi_pocket.pdb
REMARK  218 active torsions:
REMARK  status: ('A' for Active; 'I' for Inactive)
REMARK    1  A    between atoms: _1  and  _3
REMARK    2  A    between atoms: _3  and  _4
REMARK    3  A    between atoms: _3  and  _6
REMARK    4  A    between atoms: _6  and  _7
REMARK    5  A    between atoms: _7  and  _8
REMARK    6  A    between atoms: _8  and  _9
REMARK    7  A    between atoms: _18  and  _20
REMARK    8  A    between atoms: _20  and  _21
REMARK    9  A    between atoms: _20  and  _23
REMARK   10  A    between atoms: _23  and  _24
REMARK   11  A    between atoms: _27  and  _29
REMARK   12  A    between atoms: _29  and  _30
REMARK   13  A    between atoms: _29  and  _32
REMARK   14  A    between atoms: _32  and  _33
REMARK   15  A    between atoms: _36  and  _38
REMARK   16  A    between atoms: _38  and  _39
REMARK   17  A    between atoms: _38  and  _41
REMARK   18  A    between atoms: _41  and  _42
REMARK   19  A    between atoms: _45  and  _47
REMARK   20  A    between atoms: _47  and  _48
REMARK   21  A    between atoms: _47  and  _50
REMARK   22  A    between atoms: _50  and  _51
REMARK   23  A    between atoms: _54  and  _56
REMARK   24  A    between atoms: _56  and  _57
REMARK   25  A    between atoms: _59  and  _61
REMARK   26  A    between atoms: _61  and  _62
REMARK   27  A    between atoms: _65  and  _67
REMARK   28  A    between atoms: _67  and  _68
REMARK   29  A    between atoms: _67  and  _70
REMARK   30  A    between atoms: _70  and  _71
REMARK   31  A    between atoms: _74  and  _76
REMARK   32  A    between atoms: _76  and  _77
REMARK   33  A    between atoms: _76  and  _79
REMARK   34  A    between atoms: _79  and  _80
REMARK   35  A    between atoms: _83  and  _85
REMARK   36  A    between atoms: _85  and  _86
REMARK   37  A    between atoms: _85  and  _88
REMARK   38  A    between atoms: _88  and  _89
REMARK   39  A    between atoms: _92  and  _94
REMARK   40  A    between atoms: _94  and  _95
REMARK   41  A    between atoms: _94  and  _97
REMARK   42  A    between atoms: _100  and  _102
REMARK   43  A    between atoms: _102  and  _103
REMARK   44  A    between atoms: _102  and  _105
REMARK   45  A    between atoms: _105  and  _106
REMARK   46  A    between atoms: _109  and  _111
REMARK   47  A    between atoms: _111  and  _112
REMARK   48  A    between atoms: _111  and  _114
REMARK   49  A    between atoms: _114  and  _115
REMARK   50  A    between atoms: _115  and  _116
REMARK   51  A    between atoms: _118  and  _120
REMARK   52  A    between atoms: _120  and  _121
REMARK   53  A    between atoms: _120  and  _123
REMARK   54  A    between atoms: _123  and  _124
REMARK   55  A    between atoms: _127  and  _129
REMARK   56  A    between atoms: _129  and  _130
REMARK   57  A    between atoms: _132  and  _134
REMARK   58  A    between atoms: _134  and  _135
REMARK   59  A    between atoms: _137  and  _139
REMARK   60  A    between atoms: _139  and  _140
REMARK   61  A    between atoms: _139  and  _142
REMARK   62  A    between atoms: _142  and  _143
REMARK   63  A    between atoms: _146  and  _148
REMARK   64  A    between atoms: _148  and  _149
REMARK   65  A    between atoms: _151  and  _153
REMARK   66  A    between atoms: _153  and  _154
REMARK   67  A    between atoms: _156  and  _158
REMARK   68  A    between atoms: _158  and  _159
REMARK   69  A    between atoms: _158  and  _161
REMARK   70  A    between atoms: _161  and  _162
REMARK   71  A    between atoms: _165  and  _167
REMARK   72  A    between atoms: _167  and  _168
REMARK   73  A    between atoms: _167  and  _170
REMARK   74  A    between atoms: _173  and  _175
REMARK   75  A    between atoms: _175  and  _176
REMARK   76  A    between atoms: _175  and  _178
REMARK   77  A    between atoms: _178  and  _179
REMARK   78  A    between atoms: _182  and  _184
REMARK   79  A    between atoms: _184  and  _185
REMARK   80  A    between atoms: _184  and  _187
REMARK   81  A    between atoms: _187  and  _188
REMARK   82  A    between atoms: _192  and  _193
REMARK   83  A    between atoms: _198  and  _200
REMARK   84  A    between atoms: _200  and  _201
REMARK   85  A    between atoms: _200  and  _203
REMARK   86  A    between atoms: _203  and  _204
REMARK   87  A    between atoms: _207  and  _209
REMARK   88  A    between atoms: _209  and  _210
REMARK   89  A    between atoms: _209  and  _212
REMARK   90  A    between atoms: _212  and  _213
REMARK   91  A    between atoms: _218  and  _220
REMARK   92  A    between atoms: _220  and  _221
REMARK   93  A    between atoms: _220  and  _223
REMARK   94  A    between atoms: _226  and  _228
REMARK   95  A    between atoms: _228  and  _229
REMARK   96  A    between atoms: _228  and  _231
REMARK   97  A    between atoms: _231  and  _232
REMARK   98  A    between atoms: _235  and  _237
REMARK   99  A    between atoms: _237  and  _238
REMARK  100  A    between atoms: _240  and  _242
REMARK  101  A    between atoms: _242  and  _243
REMARK  102  A    between atoms: _242  and  _245
REMARK  103  A    between atoms: _245  and  _246
REMARK  104  A    between atoms: _246  and  _247
REMARK  105  A    between atoms: _247  and  _248
REMARK  106  A    between atoms: _257  and  _259
REMARK  107  A    between atoms: _259  and  _260
REMARK  108  A    between atoms: _259  and  _262
REMARK  109  A    between atoms: _262  and  _263
REMARK  110  A    between atoms: _268  and  _270
REMARK  111  A    between atoms: _270  and  _271
REMARK  112  A    between atoms: _270  and  _273
REMARK  113  A    between atoms: _273  and  _274
REMARK  114  A    between atoms: _274  and  _275
REMARK  115  A    between atoms: _275  and  _276
REMARK  116  A    between atoms: _285  and  _287
REMARK  117  A    between atoms: _287  and  _288
REMARK  118  A    between atoms: _287  and  _290
REMARK  119  A    between atoms: _290  and  _291
REMARK  120  A    between atoms: _294  and  _296
REMARK  121  A    between atoms: _296  and  _297
REMARK  122  A    between atoms: _296  and  _299
REMARK  123  A    between atoms: _299  and  _300
REMARK  124  A    between atoms: _303  and  _305
REMARK  125  A    between atoms: _305  and  _306
REMARK  126  A    between atoms: _305  and  _308
REMARK  127  A    between atoms: _308  and  _309
REMARK  128  A    between atoms: _312  and  _314
REMARK  129  A    between atoms: _314  and  _315
REMARK  130  A    between atoms: _314  and  _317
REMARK  131  A    between atoms: _317  and  _318
REMARK  132  A    between atoms: _321  and  _323
REMARK  133  A    between atoms: _323  and  _324
REMARK  134  A    between atoms: _326  and  _328
REMARK  135  A    between atoms: _328  and  _329
REMARK  136  A    between atoms: _332  and  _334
REMARK  137  A    between atoms: _334  and  _335
REMARK  138  A    between atoms: _334  and  _337
REMARK  139  A    between atoms: _337  and  _338
REMARK  140  A    between atoms: _341  and  _343
REMARK  141  A    between atoms: _343  and  _344
REMARK  142  A    between atoms: _343  and  _346
REMARK  143  A    between atoms: _346  and  _347
REMARK  144  A    between atoms: _350  and  _352
REMARK  145  A    between atoms: _352  and  _353
REMARK  146  A    between atoms: _352  and  _355
REMARK  147  A    between atoms: _355  and  _356
REMARK  148  A    between atoms: _359  and  _361
REMARK  149  A    between atoms: _361  and  _362
REMARK  150  A    between atoms: _361  and  _364
REMARK  151  A    between atoms: _367  and  _369
REMARK  152  A    between atoms: _369  and  _370
REMARK  153  A    between atoms: _369  and  _372
REMARK  154  A    between atoms: _372  and  _373
REMARK  155  A    between atoms: _373  and  _374
REMARK  156  A    between atoms: _376  and  _378
REMARK  157  A    between atoms: _378  and  _379
REMARK  158  A    between atoms: _378  and  _381
REMARK  159  A    between atoms: _381  and  _382
REMARK  160  A    between atoms: _385  and  _387
REMARK  161  A    between atoms: _387  and  _388
REMARK  162  A    between atoms: _390  and  _392
REMARK  163  A    between atoms: _392  and  _393
REMARK  164  A    between atoms: _395  and  _397
REMARK  165  A    between atoms: _397  and  _398
REMARK  166  A    between atoms: _397  and  _400
REMARK  167  A    between atoms: _400  and  _401
REMARK  168  A    between atoms: _404  and  _406
REMARK  169  A    between atoms: _406  and  _407
REMARK  170  A    between atoms: _409  and  _411
REMARK  171  A    between atoms: _411  and  _412
REMARK  172  A    between atoms: _414  and  _416
REMARK  173  A    between atoms: _416  and  _417
REMARK  174  A    between atoms: _416  and  _419
REMARK  175  A    between atoms: _419  and  _420
REMARK  176  A    between atoms: _426  and  _428
REMARK  177  A    between atoms: _428  and  _429
REMARK  178  A    between atoms: _428  and  _431
REMARK  179  A    between atoms: _431  and  _432
REMARK  180  A    between atoms: _435  and  _437
REMARK  181  A    between atoms: _437  and  _438
REMARK  182  A    between atoms: _437  and  _440
REMARK  183  A    between atoms: _443  and  _445
REMARK  184  A    between atoms: _445  and  _446
REMARK  185  A    between atoms: _445  and  _448
REMARK  186  A    between atoms: _448  and  _449
REMARK  187  A    between atoms: _452  and  _454
REMARK  188  A    between atoms: _454  and  _455
REMARK  189  A    between atoms: _454  and  _457
REMARK  190  A    between atoms: _457  and  _458
REMARK  191  A    between atoms: _462  and  _463
REMARK  192  A    between atoms: _468  and  _470
REMARK  193  A    between atoms: _470  and  _471
REMARK  194  A    between atoms: _470  and  _473
REMARK  195  A    between atoms: _473  and  _474
REMARK  196  A    between atoms: _477  and  _479
REMARK  197  A    between atoms: _479  and  _480
REMARK  198  A    between atoms: _479  and  _482
REMARK  199  A    between atoms: _482  and  _483
REMARK  200  A    between atoms: _488  and  _490
REMARK  201  A    between atoms: _490  and  _491
REMARK  202  A    between atoms: _490  and  _493
REMARK  203  A    between atoms: _496  and  _498
REMARK  204  A    between atoms: _498  and  _499
REMARK  205  A    between atoms: _498  and  _501
REMARK  206  A    between atoms: _501  and  _502
REMARK  207  A    between atoms: _505  and  _507
REMARK  208  A    between atoms: _507  and  _508
REMARK  209  A    between atoms: _510  and  _512
REMARK  210  A    between atoms: _512  and  _513
REMARK  211  A    between atoms: _512  and  _515
REMARK  212  A    between atoms: _515  and  _516
REMARK  213  A    between atoms: _516  and  _517
REMARK  214  A    between atoms: _517  and  _518
REMARK  215  A    between atoms: _527  and  _529
REMARK  216  A    between atoms: _529  and  _530
REMARK  217  A    between atoms: _529  and  _532
REMARK  218  A    between atoms: _532  and  _533
REMARK                            x       y       z     vdW  Elec       q    Type
REMARK                         _______ _______ _______ _____ _____    ______ ____
ROOT
ATOM      1  O   HOH     1      -9.904  18.337 -13.941  0.00  0.00    +0.000 OA
ENDROOT
TORSDOF 0
REMARK  Name = ../refined-set-2016/1izi/1izi_pocket.pdb
REMARK  218 active torsions:
REMARK  status: ('A' for Active; 'I' for Inactive)
REMARK    1  A    between atoms: _1  and  _3
REMARK    2  A    between atoms: _3  and  _4
REMARK    3  A    between atoms: _3  and  _6
REMARK    4  A    between atoms: _6  and  _7
REMARK    5  A    between atoms: _7  and  _8
REMARK    6  A    between atoms: _8  and  _9
REMARK    7  A    between atoms: _18  and  _20
REMARK    8  A    between atoms: _20  and  _21
REMARK    9  A    between atoms: _20  and  _23
REMARK   10  A    between atoms: _23  and  _24
REMARK   11  A    between atoms: _27  and  _29
REMARK   12  A    between atoms: _29  and  _30
REMARK   13  A    between atoms: _29  and  _32
REMARK   14  A    between atoms: _32  and  _33
REMARK   15  A    between atoms: _36  and  _38
REMARK   16  A    between atoms: _38  and  _39
REMARK   17  A    between atoms: _38  and  _41
REMARK   18  A    between atoms: _41  and  _42
REMARK   19  A    between atoms: _45  and  _47
REMARK   20  A    between atoms: _47  and  _48
REMARK   21  A    between atoms: _47  and  _50
REMARK   22  A    between atoms: _50  and  _51
REMARK   23  A    between atoms: _54  and  _56
REMARK   24  A    between atoms: _56  and  _57
REMARK   25  A    between atoms: _59  and  _61
REMARK   26  A    between atoms: _61  and  _62
REMARK   27  A    between atoms: _65  and  _67
REMARK   28  A    between atoms: _67  and  _68
REMARK   29  A    between atoms: _67  and  _70
REMARK   30  A    between atoms: _70  and  _71
REMARK   31  A    between atoms: _74  and  _76
REMARK   32  A    between atoms: _76  and  _77
REMARK   33  A    between atoms: _76  and  _79
REMARK   34  A    between atoms: _79  and  _80
REMARK   35  A    between atoms: _83  and  _85
REMARK   36  A    between atoms: _85  and  _86
REMARK   37  A    between atoms: _85  and  _88
REMARK   38  A    between atoms: _88  and  _89
REMARK   39  A    between atoms: _92  and  _94
REMARK   40  A    between atoms: _94  and  _95
REMARK   41  A    between atoms: _94  and  _97
REMARK   42  A    between atoms: _100  and  _102
REMARK   43  A    between atoms: _102  and  _103
REMARK   44  A    between atoms: _102  and  _105
REMARK   45  A    between atoms: _105  and  _106
REMARK   46  A    between atoms: _109  and  _111
REMARK   47  A    between atoms: _111  and  _112
REMARK   48  A    between atoms: _111  and  _114
REMARK   49  A    between atoms: _114  and  _115
REMARK   50  A    between atoms: _115  and  _116
REMARK   51  A    between atoms: _118  and  _120
REMARK   52  A    between atoms: _120  and  _121
REMARK   53  A    between atoms: _120  and  _123
REMARK   54  A    between atoms: _123  and  _124
REMARK   55  A    between atoms: _127  and  _129
REMARK   56  A    between atoms: _129  and  _130
REMARK   57  A    between atoms: _132  and  _134
REMARK   58  A    between atoms: _134  and  _135
REMARK   59  A    between atoms: _137  and  _139
REMARK   60  A    between atoms: _139  and  _140
REMARK   61  A    between atoms: _139  and  _142
REMARK   62  A    between atoms: _142  and  _143
REMARK   63  A    between atoms: _146  and  _148
REMARK   64  A    between atoms: _148  and  _149
REMARK   65  A    between atoms: _151  and  _153
REMARK   66  A    between atoms: _153  and  _154
REMARK   67  A    between atoms: _156  and  _158
REMARK   68  A    between atoms: _158  and  _159
REMARK   69  A    between atoms: _158  and  _161
REMARK   70  A    between atoms: _161  and  _162
REMARK   71  A    between atoms: _165  and  _167
REMARK   72  A    between atoms: _167  and  _168
REMARK   73  A    between atoms: _167  and  _170
REMARK   74  A    between atoms: _173  and  _175
REMARK   75  A    between atoms: _175  and  _176
REMARK   76  A    between atoms: _175  and  _178
REMARK   77  A    between atoms: _178  and  _179
REMARK   78  A    between atoms: _182  and  _184
REMARK   79  A    between atoms: _184  and  _185
REMARK   80  A    between atoms: _184  and  _187
REMARK   81  A    between atoms: _187  and  _188
REMARK   82  A    between atoms: _192  and  _193
REMARK   83  A    between atoms: _198  and  _200
REMARK   84  A    between atoms: _200  and  _201
REMARK   85  A    between atoms: _200  and  _203
REMARK   86  A    between atoms: _203  and  _204
REMARK   87  A    between atoms: _207  and  _209
REMARK   88  A    between atoms: _209  and  _210
REMARK   89  A    between atoms: _209  and  _212
REMARK   90  A    between atoms: _212  and  _213
REMARK   91  A    between atoms: _218  and  _220
REMARK   92  A    between atoms: _220  and  _221
REMARK   93  A    between atoms: _220  and  _223
REMARK   94  A    between atoms: _226  and  _228
REMARK   95  A    between atoms: _228  and  _229
REMARK   96  A    between atoms: _228  and  _231
REMARK   97  A    between atoms: _231  and  _232
REMARK   98  A    between atoms: _235  and  _237
REMARK   99  A    between atoms: _237  and  _238
REMARK  100  A    between atoms: _240  and  _242
REMARK  101  A    between atoms: _242  and  _243
REMARK  102  A    between atoms: _242  and  _245
REMARK  103  A    between atoms: _245  and  _246
REMARK  104  A    between atoms: _246  and  _247
REMARK  105  A    between atoms: _247  and  _248
REMARK  106  A    between atoms: _257  and  _259
REMARK  107  A    between atoms: _259  and  _260
REMARK  108  A    between atoms: _259  and  _262
REMARK  109  A    between atoms: _262  and  _263
REMARK  110  A    between atoms: _268  and  _270
REMARK  111  A    between atoms: _270  and  _271
REMARK  112  A    between atoms: _270  and  _273
REMARK  113  A    between atoms: _273  and  _274
REMARK  114  A    between atoms: _274  and  _275
REMARK  115  A    between atoms: _275  and  _276
REMARK  116  A    between atoms: _285  and  _287
REMARK  117  A    between atoms: _287  and  _288
REMARK  118  A    between atoms: _287  and  _290
REMARK  119  A    between atoms: _290  and  _291
REMARK  120  A    between atoms: _294  and  _296
REMARK  121  A    between atoms: _296  and  _297
REMARK  122  A    between atoms: _296  and  _299
REMARK  123  A    between atoms: _299  and  _300
REMARK  124  A    between atoms: _303  and  _305
REMARK  125  A    between atoms: _305  and  _306
REMARK  126  A    between atoms: _305  and  _308
REMARK  127  A    between atoms: _308  and  _309
REMARK  128  A    between atoms: _312  and  _314
REMARK  129  A    between atoms: _314  and  _315
REMARK  130  A    between atoms: _314  and  _317
REMARK  131  A    between atoms: _317  and  _318
REMARK  132  A    between atoms: _321  and  _323
REMARK  133  A    between atoms: _323  and  _324
REMARK  134  A    between atoms: _326  and  _328
REMARK  135  A    between atoms: _328  and  _329
REMARK  136  A    between atoms: _332  and  _334
REMARK  137  A    between atoms: _334  and  _335
REMARK  138  A    between atoms: _334  and  _337
REMARK  139  A    between atoms: _337  and  _338
REMARK  140  A    between atoms: _341  and  _343
REMARK  141  A    between atoms: _343  and  _344
REMARK  142  A    between atoms: _343  and  _346
REMARK  143  A    between atoms: _346  and  _347
REMARK  144  A    between atoms: _350  and  _352
REMARK  145  A    between atoms: _352  and  _353
REMARK  146  A    between atoms: _352  and  _355
REMARK  147  A    between atoms: _355  and  _356
REMARK  148  A    between atoms: _359  and  _361
REMARK  149  A    between atoms: _361  and  _362
REMARK  150  A    between atoms: _361  and  _364
REMARK  151  A    between atoms: _367  and  _369
REMARK  152  A    between atoms: _369  and  _370
REMARK  153  A    between atoms: _369  and  _372
REMARK  154  A    between atoms: _372  and  _373
REMARK  155  A    between atoms: _373  and  _374
REMARK  156  A    between atoms: _376  and  _378
REMARK  157  A    between atoms: _378  and  _379
REMARK  158  A    between atoms: _378  and  _381
REMARK  159  A    between atoms: _381  and  _382
REMARK  160  A    between atoms: _385  and  _387
REMARK  161  A    between atoms: _387  and  _388
REMARK  162  A    between atoms: _390  and  _392
REMARK  163  A    between atoms: _392  and  _393
REMARK  164  A    between atoms: _395  and  _397
REMARK  165  A    between atoms: _397  and  _398
REMARK  166  A    between atoms: _397  and  _400
REMARK  167  A    between atoms: _400  and  _401
REMARK  168  A    between atoms: _404  and  _406
REMARK  169  A    between atoms: _406  and  _407
REMARK  170  A    between atoms: _409  and  _411
REMARK  171  A    between atoms: _411  and  _412
REMARK  172  A    between atoms: _414  and  _416
REMARK  173  A    between atoms: _416  and  _417
REMARK  174  A    between atoms: _416  and  _419
REMARK  175  A    between atoms: _419  and  _420
REMARK  176  A    between atoms: _426  and  _428
REMARK  177  A    between atoms: _428  and  _429
REMARK  178  A    between atoms: _428  and  _431
REMARK  179  A    between atoms: _431  and  _432
REMARK  180  A    between atoms: _435  and  _437
REMARK  181  A    between atoms: _437  and  _438
REMARK  182  A    between atoms: _437  and  _440
REMARK  183  A    between atoms: _443  and  _445
REMARK  184  A    between atoms: _445  and  _446
REMARK  185  A    between atoms: _445  and  _448
REMARK  186  A    between atoms: _448  and  _449
REMARK  187  A    between atoms: _452  and  _454
REMARK  188  A    between atoms: _454  and  _455
REMARK  189  A    between atoms: _454  and  _457
REMARK  190  A    between atoms: _457  and  _458
REMARK  191  A    between atoms: _462  and  _463
REMARK  192  A    between atoms: _468  and  _470
REMARK  193  A    between atoms: _470  and  _471
REMARK  194  A    between atoms: _470  and  _473
REMARK  195  A    between atoms: _473  and  _474
REMARK  196  A    between atoms: _477  and  _479
REMARK  197  A    between atoms: _479  and  _480
REMARK  198  A    between atoms: _479  and  _482
REMARK  199  A    between atoms: _482  and  _483
REMARK  200  A    between atoms: _488  and  _490
REMARK  201  A    between atoms: _490  and  _491
REMARK  202  A    between atoms: _490  and  _493
REMARK  203  A    between atoms: _496  and  _498
REMARK  204  A    between atoms: _498  and  _499
REMARK  205  A    between atoms: _498  and  _501
REMARK  206  A    between atoms: _501  and  _502
REMARK  207  A    between atoms: _505  and  _507
REMARK  208  A    between atoms: _507  and  _508
REMARK  209  A    between atoms: _510  and  _512
REMARK  210  A    between atoms: _512  and  _513
REMARK  211  A    between atoms: _512  and  _515
REMARK  212  A    between atoms: _515  and  _516
REMARK  213  A    between atoms: _516  and  _517
REMARK  214  A    between atoms: _517  and  _518
REMARK  215  A    between atoms: _527  and  _529
REMARK  216  A    between atoms: _529  and  _530
REMARK  217  A    between atoms: _529  and  _532
REMARK  218  A    between atoms: _532  and  _533
REMARK                            x       y       z     vdW  Elec       q    Type
REMARK                         _______ _______ _______ _____ _____    ______ ____
ROOT
ATOM      1  O   HOH     1      -8.766  22.953 -11.300  0.00  0.00    +0.000 OA
ENDROOT
TORSDOF 0
REMARK  Name = ../refined-set-2016/1izi/1izi_pocket.pdb
REMARK  218 active torsions:
REMARK  status: ('A' for Active; 'I' for Inactive)
REMARK    1  A    between atoms: _1  and  _3
REMARK    2  A    between atoms: _3  and  _4
REMARK    3  A    between atoms: _3  and  _6
REMARK    4  A    between atoms: _6  and  _7
REMARK    5  A    between atoms: _7  and  _8
REMARK    6  A    between atoms: _8  and  _9
REMARK    7  A    between atoms: _18  and  _20
REMARK    8  A    between atoms: _20  and  _21
REMARK    9  A    between atoms: _20  and  _23
REMARK   10  A    between atoms: _23  and  _24
REMARK   11  A    between atoms: _27  and  _29
REMARK   12  A    between atoms: _29  and  _30
REMARK   13  A    between atoms: _29  and  _32
REMARK   14  A    between atoms: _32  and  _33
REMARK   15  A    between atoms: _36  and  _38
REMARK   16  A    between atoms: _38  and  _39
REMARK   17  A    between atoms: _38  and  _41
REMARK   18  A    between atoms: _41  and  _42
REMARK   19  A    between atoms: _45  and  _47
REMARK   20  A    between atoms: _47  and  _48
REMARK   21  A    between atoms: _47  and  _50
REMARK   22  A    between atoms: _50  and  _51
REMARK   23  A    between atoms: _54  and  _56
REMARK   24  A    between atoms: _56  and  _57
REMARK   25  A    between atoms: _59  and  _61
REMARK   26  A    between atoms: _61  and  _62
REMARK   27  A    between atoms: _65  and  _67
REMARK   28  A    between atoms: _67  and  _68
REMARK   29  A    between atoms: _67  and  _70
REMARK   30  A    between atoms: _70  and  _71
REMARK   31  A    between atoms: _74  and  _76
REMARK   32  A    between atoms: _76  and  _77
REMARK   33  A    between atoms: _76  and  _79
REMARK   34  A    between atoms: _79  and  _80
REMARK   35  A    between atoms: _83  and  _85
REMARK   36  A    between atoms: _85  and  _86
REMARK   37  A    between atoms: _85  and  _88
REMARK   38  A    between atoms: _88  and  _89
REMARK   39  A    between atoms: _92  and  _94
REMARK   40  A    between atoms: _94  and  _95
REMARK   41  A    between atoms: _94  and  _97
REMARK   42  A    between atoms: _100  and  _102
REMARK   43  A    between atoms: _102  and  _103
REMARK   44  A    between atoms: _102  and  _105
REMARK   45  A    between atoms: _105  and  _106
REMARK   46  A    between atoms: _109  and  _111
REMARK   47  A    between atoms: _111  and  _112
REMARK   48  A    between atoms: _111  and  _114
REMARK   49  A    between atoms: _114  and  _115
REMARK   50  A    between atoms: _115  and  _116
REMARK   51  A    between atoms: _118  and  _120
REMARK   52  A    between atoms: _120  and  _121
REMARK   53  A    between atoms: _120  and  _123
REMARK   54  A    between atoms: _123  and  _124
REMARK   55  A    between atoms: _127  and  _129
REMARK   56  A    between atoms: _129  and  _130
REMARK   57  A    between atoms: _132  and  _134
REMARK   58  A    between atoms: _134  and  _135
REMARK   59  A    between atoms: _137  and  _139
REMARK   60  A    between atoms: _139  and  _140
REMARK   61  A    between atoms: _139  and  _142
REMARK   62  A    between atoms: _142  and  _143
REMARK   63  A    between atoms: _146  and  _148
REMARK   64  A    between atoms: _148  and  _149
REMARK   65  A    between atoms: _151  and  _153
REMARK   66  A    between atoms: _153  and  _154
REMARK   67  A    between atoms: _156  and  _158
REMARK   68  A    between atoms: _158  and  _159
REMARK   69  A    between atoms: _158  and  _161
REMARK   70  A    between atoms: _161  and  _162
REMARK   71  A    between atoms: _165  and  _167
REMARK   72  A    between atoms: _167  and  _168
REMARK   73  A    between atoms: _167  and  _170
REMARK   74  A    between atoms: _173  and  _175
REMARK   75  A    between atoms: _175  and  _176
REMARK   76  A    between atoms: _175  and  _178
REMARK   77  A    between atoms: _178  and  _179
REMARK   78  A    between atoms: _182  and  _184
REMARK   79  A    between atoms: _184  and  _185
REMARK   80  A    between atoms: _184  and  _187
REMARK   81  A    between atoms: _187  and  _188
REMARK   82  A    between atoms: _192  and  _193
REMARK   83  A    between atoms: _198  and  _200
REMARK   84  A    between atoms: _200  and  _201
REMARK   85  A    between atoms: _200  and  _203
REMARK   86  A    between atoms: _203  and  _204
REMARK   87  A    between atoms: _207  and  _209
REMARK   88  A    between atoms: _209  and  _210
REMARK   89  A    between atoms: _209  and  _212
REMARK   90  A    between atoms: _212  and  _213
REMARK   91  A    between atoms: _218  and  _220
REMARK   92  A    between atoms: _220  and  _221
REMARK   93  A    between atoms: _220  and  _223
REMARK   94  A    between atoms: _226  and  _228
REMARK   95  A    between atoms: _228  and  _229
REMARK   96  A    between atoms: _228  and  _231
REMARK   97  A    between atoms: _231  and  _232
REMARK   98  A    between atoms: _235  and  _237
REMARK   99  A    between atoms: _237  and  _238
REMARK  100  A    between atoms: _240  and  _242
REMARK  101  A    between atoms: _242  and  _243
REMARK  102  A    between atoms: _242  and  _245
REMARK  103  A    between atoms: _245  and  _246
REMARK  104  A    between atoms: _246  and  _247
REMARK  105  A    between atoms: _247  and  _248
REMARK  106  A    between atoms: _257  and  _259
REMARK  107  A    between atoms: _259  and  _260
REMARK  108  A    between atoms: _259  and  _262
REMARK  109  A    between atoms: _262  and  _263
REMARK  110  A    between atoms: _268  and  _270
REMARK  111  A    between atoms: _270  and  _271
REMARK  112  A    between atoms: _270  and  _273
REMARK  113  A    between atoms: _273  and  _274
REMARK  114  A    between atoms: _274  and  _275
REMARK  115  A    between atoms: _275  and  _276
REMARK  116  A    between atoms: _285  and  _287
REMARK  117  A    between atoms: _287  and  _288
REMARK  118  A    between atoms: _287  and  _290
REMARK  119  A    between atoms: _290  and  _291
REMARK  120  A    between atoms: _294  and  _296
REMARK  121  A    between atoms: _296  and  _297
REMARK  122  A    between atoms: _296  and  _299
REMARK  123  A    between atoms: _299  and  _300
REMARK  124  A    between atoms: _303  and  _305
REMARK  125  A    between atoms: _305  and  _306
REMARK  126  A    between atoms: _305  and  _308
REMARK  127  A    between atoms: _308  and  _309
REMARK  128  A    between atoms: _312  and  _314
REMARK  129  A    between atoms: _314  and  _315
REMARK  130  A    between atoms: _314  and  _317
REMARK  131  A    between atoms: _317  and  _318
REMARK  132  A    between atoms: _321  and  _323
REMARK  133  A    between atoms: _323  and  _324
REMARK  134  A    between atoms: _326  and  _328
REMARK  135  A    between atoms: _328  and  _329
REMARK  136  A    between atoms: _332  and  _334
REMARK  137  A    between atoms: _334  and  _335
REMARK  138  A    between atoms: _334  and  _337
REMARK  139  A    between atoms: _337  and  _338
REMARK  140  A    between atoms: _341  and  _343
REMARK  141  A    between atoms: _343  and  _344
REMARK  142  A    between atoms: _343  and  _346
REMARK  143  A    between atoms: _346  and  _347
REMARK  144  A    between atoms: _350  and  _352
REMARK  145  A    between atoms: _352  and  _353
REMARK  146  A    between atoms: _352  and  _355
REMARK  147  A    between atoms: _355  and  _356
REMARK  148  A    between atoms: _359  and  _361
REMARK  149  A    between atoms: _361  and  _362
REMARK  150  A    between atoms: _361  and  _364
REMARK  151  A    between atoms: _367  and  _369
REMARK  152  A    between atoms: _369  and  _370
REMARK  153  A    between atoms: _369  and  _372
REMARK  154  A    between atoms: _372  and  _373
REMARK  155  A    between atoms: _373  and  _374
REMARK  156  A    between atoms: _376  and  _378
REMARK  157  A    between atoms: _378  and  _379
REMARK  158  A    between atoms: _378  and  _381
REMARK  159  A    between atoms: _381  and  _382
REMARK  160  A    between atoms: _385  and  _387
REMARK  161  A    between atoms: _387  and  _388
REMARK  162  A    between atoms: _390  and  _392
REMARK  163  A    between atoms: _392  and  _393
REMARK  164  A    between atoms: _395  and  _397
REMARK  165  A    between atoms: _397  and  _398
REMARK  166  A    between atoms: _397  and  _400
REMARK  167  A    between atoms: _400  and  _401
REMARK  168  A    between atoms: _404  and  _406
REMARK  169  A    between atoms: _406  and  _407
REMARK  170  A    between atoms: _409  and  _411
REMARK  171  A    between atoms: _411  and  _412
REMARK  172  A    between atoms: _414  and  _416
REMARK  173  A    between atoms: _416  and  _417
REMARK  174  A    between atoms: _416  and  _419
REMARK  175  A    between atoms: _419  and  _420
REMARK  176  A    between atoms: _426  and  _428
REMARK  177  A    between atoms: _428  and  _429
REMARK  178  A    between atoms: _428  and  _431
REMARK  179  A    between atoms: _431  and  _432
REMARK  180  A    between atoms: _435  and  _437
REMARK  181  A    between atoms: _437  and  _438
REMARK  182  A    between atoms: _437  and  _440
REMARK  183  A    between atoms: _443  and  _445
REMARK  184  A    between atoms: _445  and  _446
REMARK  185  A    between atoms: _445  and  _448
REMARK  186  A    between atoms: _448  and  _449
REMARK  187  A    between atoms: _452  and  _454
REMARK  188  A    between atoms: _454  and  _455
REMARK  189  A    between atoms: _454  and  _457
REMARK  190  A    between atoms: _457  and  _458
REMARK  191  A    between atoms: _462  and  _463
REMARK  192  A    between atoms: _468  and  _470
REMARK  193  A    between atoms: _470  and  _471
REMARK  194  A    between atoms: _470  and  _473
REMARK  195  A    between atoms: _473  and  _474
REMARK  196  A    between atoms: _477  and  _479
REMARK  197  A    between atoms: _479  and  _480
REMARK  198  A    between atoms: _479  and  _482
REMARK  199  A    between atoms: _482  and  _483
REMARK  200  A    between atoms: _488  and  _490
REMARK  201  A    between atoms: _490  and  _491
REMARK  202  A    between atoms: _490  and  _493
REMARK  203  A    between atoms: _496  and  _498
REMARK  204  A    between atoms: _498  and  _499
REMARK  205  A    between atoms: _498  and  _501
REMARK  206  A    between atoms: _501  and  _502
REMARK  207  A    between atoms: _505  and  _507
REMARK  208  A    between atoms: _507  and  _508
REMARK  209  A    between atoms: _510  and  _512
REMARK  210  A    between atoms: _512  and  _513
REMARK  211  A    between atoms: _512  and  _515
REMARK  212  A    between atoms: _515  and  _516
REMARK  213  A    between atoms: _516  and  _517
REMARK  214  A    between atoms: _517  and  _518
REMARK  215  A    between atoms: _527  and  _529
REMARK  216  A    between atoms: _529  and  _530
REMARK  217  A    between atoms: _529  and  _532
REMARK  218  A    between atoms: _532  and  _533
REMARK                            x       y       z     vdW  Elec       q    Type
REMARK                         _______ _______ _______ _____ _____    ______ ____
ROOT
ATOM      1  O   HOH     1     -12.386  14.484   5.477  0.00  0.00    +0.000 OA
ENDROOT
TORSDOF 0
REMARK  Name = ../refined-set-2016/1izi/1izi_pocket.pdb
REMARK  218 active torsions:
REMARK  status: ('A' for Active; 'I' for Inactive)
REMARK    1  A    between atoms: _1  and  _3
REMARK    2  A    between atoms: _3  and  _4
REMARK    3  A    between atoms: _3  and  _6
REMARK    4  A    between atoms: _6  and  _7
REMARK    5  A    between atoms: _7  and  _8
REMARK    6  A    between atoms: _8  and  _9
REMARK    7  A    between atoms: _18  and  _20
REMARK    8  A    between atoms: _20  and  _21
REMARK    9  A    between atoms: _20  and  _23
REMARK   10  A    between atoms: _23  and  _24
REMARK   11  A    between atoms: _27  and  _29
REMARK   12  A    between atoms: _29  and  _30
REMARK   13  A    between atoms: _29  and  _32
REMARK   14  A    between atoms: _32  and  _33
REMARK   15  A    between atoms: _36  and  _38
REMARK   16  A    between atoms: _38  and  _39
REMARK   17  A    between atoms: _38  and  _41
REMARK   18  A    between atoms: _41  and  _42
REMARK   19  A    between atoms: _45  and  _47
REMARK   20  A    between atoms: _47  and  _48
REMARK   21  A    between atoms: _47  and  _50
REMARK   22  A    between atoms: _50  and  _51
REMARK   23  A    between atoms: _54  and  _56
REMARK   24  A    between atoms: _56  and  _57
REMARK   25  A    between atoms: _59  and  _61
REMARK   26  A    between atoms: _61  and  _62
REMARK   27  A    between atoms: _65  and  _67
REMARK   28  A    between atoms: _67  and  _68
REMARK   29  A    between atoms: _67  and  _70
REMARK   30  A    between atoms: _70  and  _71
REMARK   31  A    between atoms: _74  and  _76
REMARK   32  A    between atoms: _76  and  _77
REMARK   33  A    between atoms: _76  and  _79
REMARK   34  A    between atoms: _79  and  _80
REMARK   35  A    between atoms: _83  and  _85
REMARK   36  A    between atoms: _85  and  _86
REMARK   37  A    between atoms: _85  and  _88
REMARK   38  A    between atoms: _88  and  _89
REMARK   39  A    between atoms: _92  and  _94
REMARK   40  A    between atoms: _94  and  _95
REMARK   41  A    between atoms: _94  and  _97
REMARK   42  A    between atoms: _100  and  _102
REMARK   43  A    between atoms: _102  and  _103
REMARK   44  A    between atoms: _102  and  _105
REMARK   45  A    between atoms: _105  and  _106
REMARK   46  A    between atoms: _109  and  _111
REMARK   47  A    between atoms: _111  and  _112
REMARK   48  A    between atoms: _111  and  _114
REMARK   49  A    between atoms: _114  and  _115
REMARK   50  A    between atoms: _115  and  _116
REMARK   51  A    between atoms: _118  and  _120
REMARK   52  A    between atoms: _120  and  _121
REMARK   53  A    between atoms: _120  and  _123
REMARK   54  A    between atoms: _123  and  _124
REMARK   55  A    between atoms: _127  and  _129
REMARK   56  A    between atoms: _129  and  _130
REMARK   57  A    between atoms: _132  and  _134
REMARK   58  A    between atoms: _134  and  _135
REMARK   59  A    between atoms: _137  and  _139
REMARK   60  A    between atoms: _139  and  _140
REMARK   61  A    between atoms: _139  and  _142
REMARK   62  A    between atoms: _142  and  _143
REMARK   63  A    between atoms: _146  and  _148
REMARK   64  A    between atoms: _148  and  _149
REMARK   65  A    between atoms: _151  and  _153
REMARK   66  A    between atoms: _153  and  _154
REMARK   67  A    between atoms: _156  and  _158
REMARK   68  A    between atoms: _158  and  _159
REMARK   69  A    between atoms: _158  and  _161
REMARK   70  A    between atoms: _161  and  _162
REMARK   71  A    between atoms: _165  and  _167
REMARK   72  A    between atoms: _167  and  _168
REMARK   73  A    between atoms: _167  and  _170
REMARK   74  A    between atoms: _173  and  _175
REMARK   75  A    between atoms: _175  and  _176
REMARK   76  A    between atoms: _175  and  _178
REMARK   77  A    between atoms: _178  and  _179
REMARK   78  A    between atoms: _182  and  _184
REMARK   79  A    between atoms: _184  and  _185
REMARK   80  A    between atoms: _184  and  _187
REMARK   81  A    between atoms: _187  and  _188
REMARK   82  A    between atoms: _192  and  _193
REMARK   83  A    between atoms: _198  and  _200
REMARK   84  A    between atoms: _200  and  _201
REMARK   85  A    between atoms: _200  and  _203
REMARK   86  A    between atoms: _203  and  _204
REMARK   87  A    between atoms: _207  and  _209
REMARK   88  A    between atoms: _209  and  _210
REMARK   89  A    between atoms: _209  and  _212
REMARK   90  A    between atoms: _212  and  _213
REMARK   91  A    between atoms: _218  and  _220
REMARK   92  A    between atoms: _220  and  _221
REMARK   93  A    between atoms: _220  and  _223
REMARK   94  A    between atoms: _226  and  _228
REMARK   95  A    between atoms: _228  and  _229
REMARK   96  A    between atoms: _228  and  _231
REMARK   97  A    between atoms: _231  and  _232
REMARK   98  A    between atoms: _235  and  _237
REMARK   99  A    between atoms: _237  and  _238
REMARK  100  A    between atoms: _240  and  _242
REMARK  101  A    between atoms: _242  and  _243
REMARK  102  A    between atoms: _242  and  _245
REMARK  103  A    between atoms: _245  and  _246
REMARK  104  A    between atoms: _246  and  _247
REMARK  105  A    between atoms: _247  and  _248
REMARK  106  A    between atoms: _257  and  _259
REMARK  107  A    between atoms: _259  and  _260
REMARK  108  A    between atoms: _259  and  _262
REMARK  109  A    between atoms: _262  and  _263
REMARK  110  A    between atoms: _268  and  _270
REMARK  111  A    between atoms: _270  and  _271
REMARK  112  A    between atoms: _270  and  _273
REMARK  113  A    between atoms: _273  and  _274
REMARK  114  A    between atoms: _274  and  _275
REMARK  115  A    between atoms: _275  and  _276
REMARK  116  A    between atoms: _285  and  _287
REMARK  117  A    between atoms: _287  and  _288
REMARK  118  A    between atoms: _287  and  _290
REMARK  119  A    between atoms: _290  and  _291
REMARK  120  A    between atoms: _294  and  _296
REMARK  121  A    between atoms: _296  and  _297
REMARK  122  A    between atoms: _296  and  _299
REMARK  123  A    between atoms: _299  and  _300
REMARK  124  A    between atoms: _303  and  _305
REMARK  125  A    between atoms: _305  and  _306
REMARK  126  A    between atoms: _305  and  _308
REMARK  127  A    between atoms: _308  and  _309
REMARK  128  A    between atoms: _312  and  _314
REMARK  129  A    between atoms: _314  and  _315
REMARK  130  A    between atoms: _314  and  _317
REMARK  131  A    between atoms: _317  and  _318
REMARK  132  A    between atoms: _321  and  _323
REMARK  133  A    between atoms: _323  and  _324
REMARK  134  A    between atoms: _326  and  _328
REMARK  135  A    between atoms: _328  and  _329
REMARK  136  A    between atoms: _332  and  _334
REMARK  137  A    between atoms: _334  and  _335
REMARK  138  A    between atoms: _334  and  _337
REMARK  139  A    between atoms: _337  and  _338
REMARK  140  A    between atoms: _341  and  _343
REMARK  141  A    between atoms: _343  and  _344
REMARK  142  A    between atoms: _343  and  _346
REMARK  143  A    between atoms: _346  and  _347
REMARK  144  A    between atoms: _350  and  _352
REMARK  145  A    between atoms: _352  and  _353
REMARK  146  A    between atoms: _352  and  _355
REMARK  147  A    between atoms: _355  and  _356
REMARK  148  A    between atoms: _359  and  _361
REMARK  149  A    between atoms: _361  and  _362
REMARK  150  A    between atoms: _361  and  _364
REMARK  151  A    between atoms: _367  and  _369
REMARK  152  A    between atoms: _369  and  _370
REMARK  153  A    between atoms: _369  and  _372
REMARK  154  A    between atoms: _372  and  _373
REMARK  155  A    between atoms: _373  and  _374
REMARK  156  A    between atoms: _376  and  _378
REMARK  157  A    between atoms: _378  and  _379
REMARK  158  A    between atoms: _378  and  _381
REMARK  159  A    between atoms: _381  and  _382
REMARK  160  A    between atoms: _385  and  _387
REMARK  161  A    between atoms: _387  and  _388
REMARK  162  A    between atoms: _390  and  _392
REMARK  163  A    between atoms: _392  and  _393
REMARK  164  A    between atoms: _395  and  _397
REMARK  165  A    between atoms: _397  and  _398
REMARK  166  A    between atoms: _397  and  _400
REMARK  167  A    between atoms: _400  and  _401
REMARK  168  A    between atoms: _404  and  _406
REMARK  169  A    between atoms: _406  and  _407
REMARK  170  A    between atoms: _409  and  _411
REMARK  171  A    between atoms: _411  and  _412
REMARK  172  A    between atoms: _414  and  _416
REMARK  173  A    between atoms: _416  and  _417
REMARK  174  A    between atoms: _416  and  _419
REMARK  175  A    between atoms: _419  and  _420
REMARK  176  A    between atoms: _426  and  _428
REMARK  177  A    between atoms: _428  and  _429
REMARK  178  A    between atoms: _428  and  _431
REMARK  179  A    between atoms: _431  and  _432
REMARK  180  A    between atoms: _435  and  _437
REMARK  181  A    between atoms: _437  and  _438
REMARK  182  A    between atoms: _437  and  _440
REMARK  183  A    between atoms: _443  and  _445
REMARK  184  A    between atoms: _445  and  _446
REMARK  185  A    between atoms: _445  and  _448
REMARK  186  A    between atoms: _448  and  _449
REMARK  187  A    between atoms: _452  and  _454
REMARK  188  A    between atoms: _454  and  _455
REMARK  189  A    between atoms: _454  and  _457
REMARK  190  A    between atoms: _457  and  _458
REMARK  191  A    between atoms: _462  and  _463
REMARK  192  A    between atoms: _468  and  _470
REMARK  193  A    between atoms: _470  and  _471
REMARK  194  A    between atoms: _470  and  _473
REMARK  195  A    between atoms: _473  and  _474
REMARK  196  A    between atoms: _477  and  _479
REMARK  197  A    between atoms: _479  and  _480
REMARK  198  A    between atoms: _479  and  _482
REMARK  199  A    between atoms: _482  and  _483
REMARK  200  A    between atoms: _488  and  _490
REMARK  201  A    between atoms: _490  and  _491
REMARK  202  A    between atoms: _490  and  _493
REMARK  203  A    between atoms: _496  and  _498
REMARK  204  A    between atoms: _498  and  _499
REMARK  205  A    between atoms: _498  and  _501
REMARK  206  A    between atoms: _501  and  _502
REMARK  207  A    between atoms: _505  and  _507
REMARK  208  A    between atoms: _507  and  _508
REMARK  209  A    between atoms: _510  and  _512
REMARK  210  A    between atoms: _512  and  _513
REMARK  211  A    between atoms: _512  and  _515
REMARK  212  A    between atoms: _515  and  _516
REMARK  213  A    between atoms: _516  and  _517
REMARK  214  A    between atoms: _517  and  _518
REMARK  215  A    between atoms: _527  and  _529
REMARK  216  A    between atoms: _529  and  _530
REMARK  217  A    between atoms: _529  and  _532
REMARK  218  A    between atoms: _532  and  _533
REMARK                            x       y       z     vdW  Elec       q    Type
REMARK                         _______ _______ _______ _____ _____    ______ ____
ROOT
ATOM      1  O   HOH     1      -6.150  21.283  -4.354  0.00  0.00    +0.000 OA
ENDROOT
TORSDOF 0
