REMARK  Name = ../refined-set-2016/2fgv/2fgv_pocket.pdb
REMARK  231 active torsions:
REMARK  status: ('A' for Active; 'I' for Inactive)
REMARK    1  A    between atoms: _1  and  _3
REMARK    2  A    between atoms: _3  and  _4
REMARK    3  A    between atoms: _3  and  _6
REMARK    4  A    between atoms: _6  and  _7
REMARK    5  A    between atoms: _7  and  _8
REMARK    6  A    between atoms: _8  and  _9
REMARK    7  A    between atoms: _18  and  _20
REMARK    8  A    between atoms: _20  and  _21
REMARK    9  A    between atoms: _20  and  _23
REMARK   10  A    between atoms: _23  and  _24
REMARK   11  A    between atoms: _27  and  _29
REMARK   12  A    between atoms: _29  and  _30
REMARK   13  A    between atoms: _29  and  _32
REMARK   14  A    between atoms: _32  and  _33
REMARK   15  A    between atoms: _36  and  _38
REMARK   16  A    between atoms: _38  and  _39
REMARK   17  A    between atoms: _38  and  _41
REMARK   18  A    between atoms: _41  and  _42
REMARK   19  A    between atoms: _45  and  _47
REMARK   20  A    between atoms: _47  and  _48
REMARK   21  A    between atoms: _47  and  _50
REMARK   22  A    between atoms: _50  and  _51
REMARK   23  A    between atoms: _54  and  _56
REMARK   24  A    between atoms: _56  and  _57
REMARK   25  A    between atoms: _59  and  _61
REMARK   26  A    between atoms: _61  and  _62
REMARK   27  A    between atoms: _65  and  _67
REMARK   28  A    between atoms: _67  and  _68
REMARK   29  A    between atoms: _67  and  _70
REMARK   30  A    between atoms: _70  and  _71
REMARK   31  A    between atoms: _74  and  _76
REMARK   32  A    between atoms: _76  and  _77
REMARK   33  A    between atoms: _76  and  _79
REMARK   34  A    between atoms: _79  and  _80
REMARK   35  A    between atoms: _83  and  _85
REMARK   36  A    between atoms: _85  and  _86
REMARK   37  A    between atoms: _85  and  _88
REMARK   38  A    between atoms: _88  and  _89
REMARK   39  A    between atoms: _92  and  _94
REMARK   40  A    between atoms: _94  and  _95
REMARK   41  A    between atoms: _94  and  _97
REMARK   42  A    between atoms: _100  and  _102
REMARK   43  A    between atoms: _102  and  _103
REMARK   44  A    between atoms: _102  and  _105
REMARK   45  A    between atoms: _105  and  _106
REMARK   46  A    between atoms: _106  and  _107
REMARK   47  A    between atoms: _107  and  _108
REMARK   48  A    between atoms: _108  and  _109
REMARK   49  A    between atoms: _113  and  _115
REMARK   50  A    between atoms: _115  and  _116
REMARK   51  A    between atoms: _115  and  _118
REMARK   52  A    between atoms: _118  and  _119
REMARK   53  A    between atoms: _119  and  _120
REMARK   54  A    between atoms: _122  and  _124
REMARK   55  A    between atoms: _124  and  _125
REMARK   56  A    between atoms: _124  and  _127
REMARK   57  A    between atoms: _127  and  _128
REMARK   58  A    between atoms: _131  and  _133
REMARK   59  A    between atoms: _133  and  _134
REMARK   60  A    between atoms: _136  and  _138
REMARK   61  A    between atoms: _138  and  _139
REMARK   62  A    between atoms: _141  and  _143
REMARK   63  A    between atoms: _143  and  _144
REMARK   64  A    between atoms: _143  and  _146
REMARK   65  A    between atoms: _146  and  _147
REMARK   66  A    between atoms: _150  and  _152
REMARK   67  A    between atoms: _152  and  _153
REMARK   68  A    between atoms: _155  and  _157
REMARK   69  A    between atoms: _157  and  _158
REMARK   70  A    between atoms: _160  and  _162
REMARK   71  A    between atoms: _162  and  _163
REMARK   72  A    between atoms: _162  and  _165
REMARK   73  A    between atoms: _165  and  _166
REMARK   74  A    between atoms: _172  and  _174
REMARK   75  A    between atoms: _174  and  _175
REMARK   76  A    between atoms: _174  and  _177
REMARK   77  A    between atoms: _177  and  _178
REMARK   78  A    between atoms: _181  and  _183
REMARK   79  A    between atoms: _183  and  _184
REMARK   80  A    between atoms: _183  and  _186
REMARK   81  A    between atoms: _189  and  _191
REMARK   82  A    between atoms: _191  and  _192
REMARK   83  A    between atoms: _191  and  _194
REMARK   84  A    between atoms: _194  and  _195
REMARK   85  A    between atoms: _199  and  _200
REMARK   86  A    between atoms: _205  and  _207
REMARK   87  A    between atoms: _207  and  _208
REMARK   88  A    between atoms: _207  and  _210
REMARK   89  A    between atoms: _210  and  _211
REMARK   90  A    between atoms: _217  and  _218
REMARK   91  A    between atoms: _223  and  _225
REMARK   92  A    between atoms: _225  and  _226
REMARK   93  A    between atoms: _225  and  _228
REMARK   94  A    between atoms: _231  and  _233
REMARK   95  A    between atoms: _233  and  _234
REMARK   96  A    between atoms: _233  and  _236
REMARK   97  A    between atoms: _236  and  _237
REMARK   98  A    between atoms: _242  and  _244
REMARK   99  A    between atoms: _244  and  _245
REMARK  100  A    between atoms: _244  and  _247
REMARK  101  A    between atoms: _247  and  _248
REMARK  102  A    between atoms: _251  and  _253
REMARK  103  A    between atoms: _253  and  _254
REMARK  104  A    between atoms: _253  and  _256
REMARK  105  A    between atoms: _256  and  _257
REMARK  106  A    between atoms: _260  and  _262
REMARK  107  A    between atoms: _262  and  _263
REMARK  108  A    between atoms: _265  and  _267
REMARK  109  A    between atoms: _267  and  _268
REMARK  110  A    between atoms: _267  and  _270
REMARK  111  A    between atoms: _270  and  _271
REMARK  112  A    between atoms: _271  and  _272
REMARK  113  A    between atoms: _272  and  _273
REMARK  114  A    between atoms: _282  and  _284
REMARK  115  A    between atoms: _284  and  _285
REMARK  116  A    between atoms: _284  and  _287
REMARK  117  A    between atoms: _287  and  _288
REMARK  118  A    between atoms: _293  and  _295
REMARK  119  A    between atoms: _295  and  _296
REMARK  120  A    between atoms: _295  and  _298
REMARK  121  A    between atoms: _298  and  _299
REMARK  122  A    between atoms: _299  and  _300
REMARK  123  A    between atoms: _300  and  _301
REMARK  124  A    between atoms: _310  and  _312
REMARK  125  A    between atoms: _312  and  _313
REMARK  126  A    between atoms: _312  and  _315
REMARK  127  A    between atoms: _315  and  _316
REMARK  128  A    between atoms: _319  and  _321
REMARK  129  A    between atoms: _321  and  _322
REMARK  130  A    between atoms: _321  and  _324
REMARK  131  A    between atoms: _324  and  _325
REMARK  132  A    between atoms: _328  and  _330
REMARK  133  A    between atoms: _330  and  _331
REMARK  134  A    between atoms: _330  and  _333
REMARK  135  A    between atoms: _333  and  _334
REMARK  136  A    between atoms: _337  and  _339
REMARK  137  A    between atoms: _339  and  _340
REMARK  138  A    between atoms: _339  and  _342
REMARK  139  A    between atoms: _342  and  _343
REMARK  140  A    between atoms: _346  and  _348
REMARK  141  A    between atoms: _348  and  _349
REMARK  142  A    between atoms: _351  and  _353
REMARK  143  A    between atoms: _353  and  _354
REMARK  144  A    between atoms: _357  and  _359
REMARK  145  A    between atoms: _359  and  _360
REMARK  146  A    between atoms: _359  and  _362
REMARK  147  A    between atoms: _362  and  _363
REMARK  148  A    between atoms: _366  and  _368
REMARK  149  A    between atoms: _368  and  _369
REMARK  150  A    between atoms: _368  and  _371
REMARK  151  A    between atoms: _371  and  _372
REMARK  152  A    between atoms: _375  and  _377
REMARK  153  A    between atoms: _377  and  _378
REMARK  154  A    between atoms: _377  and  _380
REMARK  155  A    between atoms: _380  and  _381
REMARK  156  A    between atoms: _384  and  _386
REMARK  157  A    between atoms: _386  and  _387
REMARK  158  A    between atoms: _386  and  _389
REMARK  159  A    between atoms: _392  and  _394
REMARK  160  A    between atoms: _394  and  _395
REMARK  161  A    between atoms: _394  and  _397
REMARK  162  A    between atoms: _397  and  _398
REMARK  163  A    between atoms: _401  and  _403
REMARK  164  A    between atoms: _403  and  _404
REMARK  165  A    between atoms: _403  and  _406
REMARK  166  A    between atoms: _406  and  _407
REMARK  167  A    between atoms: _407  and  _408
REMARK  168  A    between atoms: _410  and  _412
REMARK  169  A    between atoms: _412  and  _413
REMARK  170  A    between atoms: _412  and  _415
REMARK  171  A    between atoms: _415  and  _416
REMARK  172  A    between atoms: _419  and  _421
REMARK  173  A    between atoms: _421  and  _422
REMARK  174  A    between atoms: _424  and  _426
REMARK  175  A    between atoms: _426  and  _427
REMARK  176  A    between atoms: _429  and  _431
REMARK  177  A    between atoms: _431  and  _432
REMARK  178  A    between atoms: _431  and  _434
REMARK  179  A    between atoms: _434  and  _435
REMARK  180  A    between atoms: _438  and  _440
REMARK  181  A    between atoms: _440  and  _441
REMARK  182  A    between atoms: _443  and  _445
REMARK  183  A    between atoms: _445  and  _446
REMARK  184  A    between atoms: _448  and  _450
REMARK  185  A    between atoms: _450  and  _451
REMARK  186  A    between atoms: _450  and  _453
REMARK  187  A    between atoms: _453  and  _454
REMARK  188  A    between atoms: _460  and  _462
REMARK  189  A    between atoms: _462  and  _463
REMARK  190  A    between atoms: _462  and  _465
REMARK  191  A    between atoms: _465  and  _466
REMARK  192  A    between atoms: _469  and  _471
REMARK  193  A    between atoms: _471  and  _472
REMARK  194  A    between atoms: _471  and  _474
REMARK  195  A    between atoms: _477  and  _479
REMARK  196  A    between atoms: _479  and  _480
REMARK  197  A    between atoms: _479  and  _482
REMARK  198  A    between atoms: _482  and  _483
REMARK  199  A    between atoms: _487  and  _488
REMARK  200  A    between atoms: _493  and  _495
REMARK  201  A    between atoms: _495  and  _496
REMARK  202  A    between atoms: _495  and  _498
REMARK  203  A    between atoms: _498  and  _499
REMARK  204  A    between atoms: _505  and  _506
REMARK  205  A    between atoms: _511  and  _513
REMARK  206  A    between atoms: _513  and  _514
REMARK  207  A    between atoms: _513  and  _516
REMARK  208  A    between atoms: _519  and  _521
REMARK  209  A    between atoms: _521  and  _522
REMARK  210  A    between atoms: _521  and  _524
REMARK  211  A    between atoms: _524  and  _525
REMARK  212  A    between atoms: _530  and  _532
REMARK  213  A    between atoms: _532  and  _533
REMARK  214  A    between atoms: _532  and  _535
REMARK  215  A    between atoms: _535  and  _536
REMARK  216  A    between atoms: _539  and  _541
REMARK  217  A    between atoms: _541  and  _542
REMARK  218  A    between atoms: _541  and  _544
REMARK  219  A    between atoms: _544  and  _545
REMARK  220  A    between atoms: _548  and  _550
REMARK  221  A    between atoms: _550  and  _551
REMARK  222  A    between atoms: _553  and  _555
REMARK  223  A    between atoms: _555  and  _556
REMARK  224  A    between atoms: _555  and  _558
REMARK  225  A    between atoms: _558  and  _559
REMARK  226  A    between atoms: _559  and  _560
REMARK  227  A    between atoms: _560  and  _561
REMARK  228  A    between atoms: _570  and  _572
REMARK  229  A    between atoms: _572  and  _573
REMARK  230  A    between atoms: _572  and  _575
REMARK  231  A    between atoms: _575  and  _576
REMARK                            x       y       z     vdW  Elec       q    Type
REMARK                         _______ _______ _______ _____ _____    ______ ____
ROOT
ATOM      1  NE  ARG A   1      18.949   9.325  19.551  0.00  0.00    -0.265 N 
ATOM      2  CZ  ARG A   1      18.561   8.858  20.735  0.00  0.00    +0.342 C 
ATOM      3  NH2 ARG A   1      19.455   8.656  21.694  0.00  0.00    -0.292 N 
ATOM      4 HH21 ARG A   1      19.152   8.291  22.619  0.00  0.00    +0.255 HD
ATOM      5 HH22 ARG A   1      20.459   8.863  21.521  0.00  0.00    +0.255 HD
ATOM      6  NH1 ARG A   1      17.282   8.584  20.966  0.00  0.00    -0.292 N 
ATOM      7 HH11 ARG A   1      16.988   8.219  21.894  0.00  0.00    +0.255 HD
ATOM      8 HH12 ARG A   1      16.575   8.734  20.218  0.00  0.00    +0.255 HD
ATOM      9  HE  ARG A   1      19.961   9.519  19.413  0.00  0.00    +0.259 HD
ENDROOT
BRANCH   1  10
ATOM     10  CD  ARG A   1      18.047   9.582  18.434  0.00  0.00    +0.174 C 
BRANCH  10  11
ATOM     11  CG  ARG A   1      18.764  10.213  17.262  0.00  0.00    +0.045 C 
BRANCH  11  12
ATOM     12  CB  ARG A   1      17.803  10.604  16.152  0.00  0.00    +0.029 C 
BRANCH  12  13
ATOM     13  CA  ARG A   1      18.500  11.209  14.936  0.00  0.00    +0.133 C 
BRANCH  13  14
ATOM     14  N   ARG A   1      19.173  12.449  15.297  0.00  0.00    -0.239 NA
ATOM     15  H   ARG A   1      19.145  12.784  16.281  0.00  0.00    +0.142 HD
ENDBRANCH  13  14
BRANCH  13  16
ATOM     16  C   ARG A   1      17.483  11.523  13.843  0.00  0.00    +0.224 C 
ATOM     17  O   ARG A   1      16.725  12.487  13.972  0.00  0.00    -0.287 OA
ENDBRANCH  13  16
ENDBRANCH  12  13
ENDBRANCH  11  12
ENDBRANCH  10  11
ENDBRANCH   1  10
TORSDOF 6
REMARK  Name = ../refined-set-2016/2fgv/2fgv_pocket.pdb
REMARK  231 active torsions:
REMARK  status: ('A' for Active; 'I' for Inactive)
REMARK    1  A    between atoms: _1  and  _3
REMARK    2  A    between atoms: _3  and  _4
REMARK    3  A    between atoms: _3  and  _6
REMARK    4  A    between atoms: _6  and  _7
REMARK    5  A    between atoms: _7  and  _8
REMARK    6  A    between atoms: _8  and  _9
REMARK    7  A    between atoms: _18  and  _20
REMARK    8  A    between atoms: _20  and  _21
REMARK    9  A    between atoms: _20  and  _23
REMARK   10  A    between atoms: _23  and  _24
REMARK   11  A    between atoms: _27  and  _29
REMARK   12  A    between atoms: _29  and  _30
REMARK   13  A    between atoms: _29  and  _32
REMARK   14  A    between atoms: _32  and  _33
REMARK   15  A    between atoms: _36  and  _38
REMARK   16  A    between atoms: _38  and  _39
REMARK   17  A    between atoms: _38  and  _41
REMARK   18  A    between atoms: _41  and  _42
REMARK   19  A    between atoms: _45  and  _47
REMARK   20  A    between atoms: _47  and  _48
REMARK   21  A    between atoms: _47  and  _50
REMARK   22  A    between atoms: _50  and  _51
REMARK   23  A    between atoms: _54  and  _56
REMARK   24  A    between atoms: _56  and  _57
REMARK   25  A    between atoms: _59  and  _61
REMARK   26  A    between atoms: _61  and  _62
REMARK   27  A    between atoms: _65  and  _67
REMARK   28  A    between atoms: _67  and  _68
REMARK   29  A    between atoms: _67  and  _70
REMARK   30  A    between atoms: _70  and  _71
REMARK   31  A    between atoms: _74  and  _76
REMARK   32  A    between atoms: _76  and  _77
REMARK   33  A    between atoms: _76  and  _79
REMARK   34  A    between atoms: _79  and  _80
REMARK   35  A    between atoms: _83  and  _85
REMARK   36  A    between atoms: _85  and  _86
REMARK   37  A    between atoms: _85  and  _88
REMARK   38  A    between atoms: _88  and  _89
REMARK   39  A    between atoms: _92  and  _94
REMARK   40  A    between atoms: _94  and  _95
REMARK   41  A    between atoms: _94  and  _97
REMARK   42  A    between atoms: _100  and  _102
REMARK   43  A    between atoms: _102  and  _103
REMARK   44  A    between atoms: _102  and  _105
REMARK   45  A    between atoms: _105  and  _106
REMARK   46  A    between atoms: _106  and  _107
REMARK   47  A    between atoms: _107  and  _108
REMARK   48  A    between atoms: _108  and  _109
REMARK   49  A    between atoms: _113  and  _115
REMARK   50  A    between atoms: _115  and  _116
REMARK   51  A    between atoms: _115  and  _118
REMARK   52  A    between atoms: _118  and  _119
REMARK   53  A    between atoms: _119  and  _120
REMARK   54  A    between atoms: _122  and  _124
REMARK   55  A    between atoms: _124  and  _125
REMARK   56  A    between atoms: _124  and  _127
REMARK   57  A    between atoms: _127  and  _128
REMARK   58  A    between atoms: _131  and  _133
REMARK   59  A    between atoms: _133  and  _134
REMARK   60  A    between atoms: _136  and  _138
REMARK   61  A    between atoms: _138  and  _139
REMARK   62  A    between atoms: _141  and  _143
REMARK   63  A    between atoms: _143  and  _144
REMARK   64  A    between atoms: _143  and  _146
REMARK   65  A    between atoms: _146  and  _147
REMARK   66  A    between atoms: _150  and  _152
REMARK   67  A    between atoms: _152  and  _153
REMARK   68  A    between atoms: _155  and  _157
REMARK   69  A    between atoms: _157  and  _158
REMARK   70  A    between atoms: _160  and  _162
REMARK   71  A    between atoms: _162  and  _163
REMARK   72  A    between atoms: _162  and  _165
REMARK   73  A    between atoms: _165  and  _166
REMARK   74  A    between atoms: _172  and  _174
REMARK   75  A    between atoms: _174  and  _175
REMARK   76  A    between atoms: _174  and  _177
REMARK   77  A    between atoms: _177  and  _178
REMARK   78  A    between atoms: _181  and  _183
REMARK   79  A    between atoms: _183  and  _184
REMARK   80  A    between atoms: _183  and  _186
REMARK   81  A    between atoms: _189  and  _191
REMARK   82  A    between atoms: _191  and  _192
REMARK   83  A    between atoms: _191  and  _194
REMARK   84  A    between atoms: _194  and  _195
REMARK   85  A    between atoms: _199  and  _200
REMARK   86  A    between atoms: _205  and  _207
REMARK   87  A    between atoms: _207  and  _208
REMARK   88  A    between atoms: _207  and  _210
REMARK   89  A    between atoms: _210  and  _211
REMARK   90  A    between atoms: _217  and  _218
REMARK   91  A    between atoms: _223  and  _225
REMARK   92  A    between atoms: _225  and  _226
REMARK   93  A    between atoms: _225  and  _228
REMARK   94  A    between atoms: _231  and  _233
REMARK   95  A    between atoms: _233  and  _234
REMARK   96  A    between atoms: _233  and  _236
REMARK   97  A    between atoms: _236  and  _237
REMARK   98  A    between atoms: _242  and  _244
REMARK   99  A    between atoms: _244  and  _245
REMARK  100  A    between atoms: _244  and  _247
REMARK  101  A    between atoms: _247  and  _248
REMARK  102  A    between atoms: _251  and  _253
REMARK  103  A    between atoms: _253  and  _254
REMARK  104  A    between atoms: _253  and  _256
REMARK  105  A    between atoms: _256  and  _257
REMARK  106  A    between atoms: _260  and  _262
REMARK  107  A    between atoms: _262  and  _263
REMARK  108  A    between atoms: _265  and  _267
REMARK  109  A    between atoms: _267  and  _268
REMARK  110  A    between atoms: _267  and  _270
REMARK  111  A    between atoms: _270  and  _271
REMARK  112  A    between atoms: _271  and  _272
REMARK  113  A    between atoms: _272  and  _273
REMARK  114  A    between atoms: _282  and  _284
REMARK  115  A    between atoms: _284  and  _285
REMARK  116  A    between atoms: _284  and  _287
REMARK  117  A    between atoms: _287  and  _288
REMARK  118  A    between atoms: _293  and  _295
REMARK  119  A    between atoms: _295  and  _296
REMARK  120  A    between atoms: _295  and  _298
REMARK  121  A    between atoms: _298  and  _299
REMARK  122  A    between atoms: _299  and  _300
REMARK  123  A    between atoms: _300  and  _301
REMARK  124  A    between atoms: _310  and  _312
REMARK  125  A    between atoms: _312  and  _313
REMARK  126  A    between atoms: _312  and  _315
REMARK  127  A    between atoms: _315  and  _316
REMARK  128  A    between atoms: _319  and  _321
REMARK  129  A    between atoms: _321  and  _322
REMARK  130  A    between atoms: _321  and  _324
REMARK  131  A    between atoms: _324  and  _325
REMARK  132  A    between atoms: _328  and  _330
REMARK  133  A    between atoms: _330  and  _331
REMARK  134  A    between atoms: _330  and  _333
REMARK  135  A    between atoms: _333  and  _334
REMARK  136  A    between atoms: _337  and  _339
REMARK  137  A    between atoms: _339  and  _340
REMARK  138  A    between atoms: _339  and  _342
REMARK  139  A    between atoms: _342  and  _343
REMARK  140  A    between atoms: _346  and  _348
REMARK  141  A    between atoms: _348  and  _349
REMARK  142  A    between atoms: _351  and  _353
REMARK  143  A    between atoms: _353  and  _354
REMARK  144  A    between atoms: _357  and  _359
REMARK  145  A    between atoms: _359  and  _360
REMARK  146  A    between atoms: _359  and  _362
REMARK  147  A    between atoms: _362  and  _363
REMARK  148  A    between atoms: _366  and  _368
REMARK  149  A    between atoms: _368  and  _369
REMARK  150  A    between atoms: _368  and  _371
REMARK  151  A    between atoms: _371  and  _372
REMARK  152  A    between atoms: _375  and  _377
REMARK  153  A    between atoms: _377  and  _378
REMARK  154  A    between atoms: _377  and  _380
REMARK  155  A    between atoms: _380  and  _381
REMARK  156  A    between atoms: _384  and  _386
REMARK  157  A    between atoms: _386  and  _387
REMARK  158  A    between atoms: _386  and  _389
REMARK  159  A    between atoms: _392  and  _394
REMARK  160  A    between atoms: _394  and  _395
REMARK  161  A    between atoms: _394  and  _397
REMARK  162  A    between atoms: _397  and  _398
REMARK  163  A    between atoms: _401  and  _403
REMARK  164  A    between atoms: _403  and  _404
REMARK  165  A    between atoms: _403  and  _406
REMARK  166  A    between atoms: _406  and  _407
REMARK  167  A    between atoms: _407  and  _408
REMARK  168  A    between atoms: _410  and  _412
REMARK  169  A    between atoms: _412  and  _413
REMARK  170  A    between atoms: _412  and  _415
REMARK  171  A    between atoms: _415  and  _416
REMARK  172  A    between atoms: _419  and  _421
REMARK  173  A    between atoms: _421  and  _422
REMARK  174  A    between atoms: _424  and  _426
REMARK  175  A    between atoms: _426  and  _427
REMARK  176  A    between atoms: _429  and  _431
REMARK  177  A    between atoms: _431  and  _432
REMARK  178  A    between atoms: _431  and  _434
REMARK  179  A    between atoms: _434  and  _435
REMARK  180  A    between atoms: _438  and  _440
REMARK  181  A    between atoms: _440  and  _441
REMARK  182  A    between atoms: _443  and  _445
REMARK  183  A    between atoms: _445  and  _446
REMARK  184  A    between atoms: _448  and  _450
REMARK  185  A    between atoms: _450  and  _451
REMARK  186  A    between atoms: _450  and  _453
REMARK  187  A    between atoms: _453  and  _454
REMARK  188  A    between atoms: _460  and  _462
REMARK  189  A    between atoms: _462  and  _463
REMARK  190  A    between atoms: _462  and  _465
REMARK  191  A    between atoms: _465  and  _466
REMARK  192  A    between atoms: _469  and  _471
REMARK  193  A    between atoms: _471  and  _472
REMARK  194  A    between atoms: _471  and  _474
REMARK  195  A    between atoms: _477  and  _479
REMARK  196  A    between atoms: _479  and  _480
REMARK  197  A    between atoms: _479  and  _482
REMARK  198  A    between atoms: _482  and  _483
REMARK  199  A    between atoms: _487  and  _488
REMARK  200  A    between atoms: _493  and  _495
REMARK  201  A    between atoms: _495  and  _496
REMARK  202  A    between atoms: _495  and  _498
REMARK  203  A    between atoms: _498  and  _499
REMARK  204  A    between atoms: _505  and  _506
REMARK  205  A    between atoms: _511  and  _513
REMARK  206  A    between atoms: _513  and  _514
REMARK  207  A    between atoms: _513  and  _516
REMARK  208  A    between atoms: _519  and  _521
REMARK  209  A    between atoms: _521  and  _522
REMARK  210  A    between atoms: _521  and  _524
REMARK  211  A    between atoms: _524  and  _525
REMARK  212  A    between atoms: _530  and  _532
REMARK  213  A    between atoms: _532  and  _533
REMARK  214  A    between atoms: _532  and  _535
REMARK  215  A    between atoms: _535  and  _536
REMARK  216  A    between atoms: _539  and  _541
REMARK  217  A    between atoms: _541  and  _542
REMARK  218  A    between atoms: _541  and  _544
REMARK  219  A    between atoms: _544  and  _545
REMARK  220  A    between atoms: _548  and  _550
REMARK  221  A    between atoms: _550  and  _551
REMARK  222  A    between atoms: _553  and  _555
REMARK  223  A    between atoms: _555  and  _556
REMARK  224  A    between atoms: _555  and  _558
REMARK  225  A    between atoms: _558  and  _559
REMARK  226  A    between atoms: _559  and  _560
REMARK  227  A    between atoms: _560  and  _561
REMARK  228  A    between atoms: _570  and  _572
REMARK  229  A    between atoms: _572  and  _573
REMARK  230  A    between atoms: _572  and  _575
REMARK  231  A    between atoms: _575  and  _576
REMARK                            x       y       z     vdW  Elec       q    Type
REMARK                         _______ _______ _______ _____ _____    ______ ____
ROOT
ATOM      1  C   GLY A   5      19.692  -1.805  10.727  0.00  0.00    +0.243 C 
ATOM      2  O   GLY A   5      20.068  -2.814  11.332  0.00  0.00    -0.273 OA
ATOM      3  N   ALA A   6      18.408  -1.539  10.503  0.00  0.00    -0.297 N 
ATOM      4  H   ALA A   6      18.148  -0.657  10.017  0.00  0.00    +0.150 HD
ENDROOT
BRANCH   3   5
ATOM      5  CA  ALA A   6      17.357  -2.458  10.924  0.00  0.00    +0.149 C 
ATOM      6  CB  ALA A   6      16.234  -1.715  11.617  0.00  0.00    +0.031 C 
BRANCH   5   7
ATOM      7  C   ALA A   6      16.793  -3.226   9.744  0.00  0.00    +0.241 C 
ATOM      8  N   ASP A   7      16.832  -4.555   9.823  0.00  0.00    -0.297 N 
ATOM      9  H   ASP A   7      17.324  -5.006  10.620  0.00  0.00    +0.150 HD
ATOM     10  O   ALA A   6      16.314  -2.624   8.789  0.00  0.00    -0.273 OA
BRANCH   8  11
ATOM     11  CA  ASP A   7      16.196  -5.386   8.810  0.00  0.00    +0.160 C 
BRANCH  11  12
ATOM     12  C   ASP A   7      14.689  -5.189   8.806  0.00  0.00    +0.241 C 
ATOM     13  N   ASP A   8      14.139  -5.012  10.005  0.00  0.00    -0.297 N 
ATOM     14  H   ASP A   8      14.772  -4.854  10.815  0.00  0.00    +0.150 HD
ATOM     15  O   ASP A   7      14.056  -5.219   7.747  0.00  0.00    -0.273 OA
BRANCH  13  16
ATOM     16  CA  ASP A   8      12.702  -5.026  10.251  0.00  0.00    +0.160 C 
BRANCH  16  17
ATOM     17  C   ASP A   8      12.220  -3.671  10.752  0.00  0.00    +0.241 C 
ATOM     18  O   ASP A   8      13.008  -2.824  11.167  0.00  0.00    -0.273 OA
ATOM     19  N   THR A   9      10.906  -3.482  10.713  0.00  0.00    -0.295 N 
ATOM     20  H   THR A   9      10.306  -4.208  10.273  0.00  0.00    +0.150 HD
BRANCH  19  21
ATOM     21  CA  THR A   9      10.282  -2.296  11.264  0.00  0.00    +0.176 C 
BRANCH  21  22
ATOM     22  C   THR A   9       9.691  -2.685  12.612  0.00  0.00    +0.243 C 
ATOM     23  N   VAL A  10      10.111  -1.989  13.666  0.00  0.00    -0.298 N 
ATOM     24  H   VAL A  10      10.714  -1.156  13.510  0.00  0.00    +0.150 HD
ATOM     25  O   THR A   9       8.899  -3.621  12.688  0.00  0.00    -0.273 OA
BRANCH  23  26
ATOM     26  CA  VAL A  10       9.754  -2.356  15.034  0.00  0.00    +0.137 C 
BRANCH  26  27
ATOM     27  CB  VAL A  10      10.960  -2.861  15.849  0.00  0.00    +0.026 C 
ATOM     28  CG2 VAL A  10      10.479  -3.501  17.140  0.00  0.00    +0.002 C 
ATOM     29  CG1 VAL A  10      11.775  -3.858  15.035  0.00  0.00    +0.002 C 
ENDBRANCH  26  27
BRANCH  26  30
ATOM     30  C   VAL A  10       9.140  -1.147  15.731  0.00  0.00    +0.227 C 
ATOM     31  O   VAL A  10       9.778  -0.099  15.874  0.00  0.00    -0.286 OA
ENDBRANCH  26  30
ENDBRANCH  23  26
ENDBRANCH  21  22
BRANCH  21  32
ATOM     32  CB  THR A   9       9.208  -1.768  10.303  0.00  0.00    +0.137 C 
ATOM     33  CG2 THR A   9       8.377  -0.667  10.937  0.00  0.00    +0.034 C 
BRANCH  32  34
ATOM     34  OG1 THR A   9       9.855  -1.258   9.136  0.00  0.00    -0.382 OA
ATOM     35  HG1 THR A   9      10.370  -1.984   8.702  0.00  0.00    +0.210 HD
ENDBRANCH  32  34
ENDBRANCH  21  32
ENDBRANCH  19  21
ENDBRANCH  16  17
BRANCH  16  36
ATOM     36  CB  ASP A   8      12.367  -6.078  11.312  0.00  0.00    +0.143 C 
BRANCH  36  37
ATOM     37  CG  ASP A   8      12.848  -7.466  10.935  0.00  0.00    +0.367 C 
ATOM     38  OD2 ASP A   8      13.569  -8.086  11.742  0.00  0.00    -0.246 OA
ATOM     39  OD1 ASP A   8      12.517  -7.946   9.829  0.00  0.00    -0.246 OA
ENDBRANCH  36  37
ENDBRANCH  16  36
ENDBRANCH  13  16
ENDBRANCH  11  12
BRANCH  11  40
ATOM     40  CB  ASP A   7      16.424  -6.865   9.108  0.00  0.00    +0.143 C 
BRANCH  40  41
ATOM     41  CG  ASP A   7      17.847  -7.315   8.895  0.00  0.00    +0.367 C 
ATOM     42  OD2 ASP A   7      18.102  -8.489   9.238  0.00  0.00    -0.246 OA
ATOM     43  OD1 ASP A   7      18.675  -6.535   8.392  0.00  0.00    -0.246 OA
ENDBRANCH  40  41
ENDBRANCH  11  40
ENDBRANCH   8  11
ENDBRANCH   5   7
ENDBRANCH   3   5
BRANCH   1  44
ATOM     44  CA  GLY A   5      20.717  -0.827  10.183  0.00  0.00    +0.176 C 
BRANCH  44  46
ATOM     45  C   THR A   4      19.832   0.354   8.240  0.00  0.00    +0.243 C 
ATOM     46  N   GLY A   5      20.153   0.352   9.530  0.00  0.00    -0.295 N 
ATOM     47  H   GLY A   5      19.998   1.214  10.090  0.00  0.00    +0.150 HD
ATOM     48  O   THR A   4      20.046  -0.615   7.504  0.00  0.00    -0.273 OA
BRANCH  45  49
ATOM     49  CA  THR A   4      19.174   1.615   7.687  0.00  0.00    +0.176 C 
BRANCH  49  52
ATOM     50  C   ASP A   3      17.536   2.080   9.410  0.00  0.00    +0.241 C 
ATOM     51  O   ASP A   3      17.024   0.982   9.239  0.00  0.00    -0.273 OA
ATOM     52  N   THR A   4      18.605   2.468   8.724  0.00  0.00    -0.295 N 
ATOM     53  H   THR A   4      19.041   3.390   8.928  0.00  0.00    +0.150 HD
BRANCH  50  54
ATOM     54  CA  ASP A   3      16.963   3.061  10.433  0.00  0.00    +0.160 C 
BRANCH  54  57
ATOM     55  C   LEU A   2      15.950   5.236   9.972  0.00  0.00    +0.241 C 
ATOM     56  O   LEU A   2      16.964   5.882  10.281  0.00  0.00    -0.273 OA
ATOM     57  N   ASP A   3      15.933   3.909   9.833  0.00  0.00    -0.297 N 
ATOM     58  H   ASP A   3      15.168   3.467   9.284  0.00  0.00    +0.150 HD
BRANCH  55  59
ATOM     59  CA  LEU A   2      14.639   5.970   9.728  0.00  0.00    +0.149 C 
BRANCH  59  62
ATOM     60  C   LEU A   1      13.757   5.903  11.982  0.00  0.00    +0.238 C 
ATOM     61  O   LEU A   1      13.517   4.708  11.866  0.00  0.00    -0.274 OA
ATOM     62  N   LEU A   2      14.256   6.618  10.979  0.00  0.00    -0.297 N 
ATOM     63  H   LEU A   2      14.374   7.646  11.086  0.00  0.00    +0.150 HD
BRANCH  60  64
ATOM     64  CA  LEU A   1      13.503   6.602  13.314  0.00  0.00    +0.145 C 
BRANCH  64  65
ATOM     65  N   LEU A   1      12.095   6.452  13.663  0.00  0.00    -0.238 NA
ATOM     66  H   LEU A   1      11.798   5.594  14.170  0.00  0.00    +0.142 HD
ENDBRANCH  64  65
BRANCH  64  67
ATOM     67  CB  LEU A   1      14.337   5.928  14.409  0.00  0.00    +0.026 C 
BRANCH  67  68
ATOM     68  CG  LEU A   1      15.860   6.002  14.340  0.00  0.00    +0.002 C 
ATOM     69  CD2 LEU A   1      16.452   5.100  15.403  0.00  0.00    +0.000 C 
ATOM     70  CD1 LEU A   1      16.332   7.429  14.534  0.00  0.00    +0.000 C 
ENDBRANCH  67  68
ENDBRANCH  64  67
ENDBRANCH  60  64
ENDBRANCH  59  62
BRANCH  59  71
ATOM     71  CB  LEU A   2      14.800   6.989   8.602  0.00  0.00    +0.029 C 
BRANCH  71  72
ATOM     72  CG  LEU A   2      13.552   7.819   8.312  0.00  0.00    +0.002 C 
ATOM     73  CD2 LEU A   2      12.335   6.949   8.007  0.00  0.00    +0.000 C 
ATOM     74  CD1 LEU A   2      13.822   8.788   7.174  0.00  0.00    +0.000 C 
ENDBRANCH  71  72
ENDBRANCH  59  71
ENDBRANCH  55  59
ENDBRANCH  54  57
BRANCH  54  75
ATOM     75  CB  ASP A   3      16.326   2.339  11.623  0.00  0.00    +0.143 C 
BRANCH  75  76
ATOM     76  CG  ASP A   3      17.326   1.628  12.492  0.00  0.00    +0.367 C 
ATOM     77  OD2 ASP A   3      16.940   1.224  13.612  0.00  0.00    -0.246 OA
ATOM     78  OD1 ASP A   3      18.486   1.495  12.061  0.00  0.00    -0.246 OA
ENDBRANCH  75  76
ENDBRANCH  54  75
ENDBRANCH  50  54
ENDBRANCH  49  52
BRANCH  49  79
ATOM     79  CB  THR A   4      20.187   2.376   6.822  0.00  0.00    +0.137 C 
ATOM     80  CG2 THR A   4      19.510   3.498   6.078  0.00  0.00    +0.034 C 
BRANCH  79  81
ATOM     81  OG1 THR A   4      21.230   2.908   7.648  0.00  0.00    -0.382 OA
ATOM     82  HG1 THR A   4      21.690   2.166   8.115  0.00  0.00    +0.210 HD
ENDBRANCH  79  81
ENDBRANCH  49  79
ENDBRANCH  45  49
ENDBRANCH  44  46
ENDBRANCH   1  44
TORSDOF 35
REMARK  Name = ../refined-set-2016/2fgv/2fgv_pocket.pdb
REMARK  231 active torsions:
REMARK  status: ('A' for Active; 'I' for Inactive)
REMARK    1  A    between atoms: _1  and  _3
REMARK    2  A    between atoms: _3  and  _4
REMARK    3  A    between atoms: _3  and  _6
REMARK    4  A    between atoms: _6  and  _7
REMARK    5  A    between atoms: _7  and  _8
REMARK    6  A    between atoms: _8  and  _9
REMARK    7  A    between atoms: _18  and  _20
REMARK    8  A    between atoms: _20  and  _21
REMARK    9  A    between atoms: _20  and  _23
REMARK   10  A    between atoms: _23  and  _24
REMARK   11  A    between atoms: _27  and  _29
REMARK   12  A    between atoms: _29  and  _30
REMARK   13  A    between atoms: _29  and  _32
REMARK   14  A    between atoms: _32  and  _33
REMARK   15  A    between atoms: _36  and  _38
REMARK   16  A    between atoms: _38  and  _39
REMARK   17  A    between atoms: _38  and  _41
REMARK   18  A    between atoms: _41  and  _42
REMARK   19  A    between atoms: _45  and  _47
REMARK   20  A    between atoms: _47  and  _48
REMARK   21  A    between atoms: _47  and  _50
REMARK   22  A    between atoms: _50  and  _51
REMARK   23  A    between atoms: _54  and  _56
REMARK   24  A    between atoms: _56  and  _57
REMARK   25  A    between atoms: _59  and  _61
REMARK   26  A    between atoms: _61  and  _62
REMARK   27  A    between atoms: _65  and  _67
REMARK   28  A    between atoms: _67  and  _68
REMARK   29  A    between atoms: _67  and  _70
REMARK   30  A    between atoms: _70  and  _71
REMARK   31  A    between atoms: _74  and  _76
REMARK   32  A    between atoms: _76  and  _77
REMARK   33  A    between atoms: _76  and  _79
REMARK   34  A    between atoms: _79  and  _80
REMARK   35  A    between atoms: _83  and  _85
REMARK   36  A    between atoms: _85  and  _86
REMARK   37  A    between atoms: _85  and  _88
REMARK   38  A    between atoms: _88  and  _89
REMARK   39  A    between atoms: _92  and  _94
REMARK   40  A    between atoms: _94  and  _95
REMARK   41  A    between atoms: _94  and  _97
REMARK   42  A    between atoms: _100  and  _102
REMARK   43  A    between atoms: _102  and  _103
REMARK   44  A    between atoms: _102  and  _105
REMARK   45  A    between atoms: _105  and  _106
REMARK   46  A    between atoms: _106  and  _107
REMARK   47  A    between atoms: _107  and  _108
REMARK   48  A    between atoms: _108  and  _109
REMARK   49  A    between atoms: _113  and  _115
REMARK   50  A    between atoms: _115  and  _116
REMARK   51  A    between atoms: _115  and  _118
REMARK   52  A    between atoms: _118  and  _119
REMARK   53  A    between atoms: _119  and  _120
REMARK   54  A    between atoms: _122  and  _124
REMARK   55  A    between atoms: _124  and  _125
REMARK   56  A    between atoms: _124  and  _127
REMARK   57  A    between atoms: _127  and  _128
REMARK   58  A    between atoms: _131  and  _133
REMARK   59  A    between atoms: _133  and  _134
REMARK   60  A    between atoms: _136  and  _138
REMARK   61  A    between atoms: _138  and  _139
REMARK   62  A    between atoms: _141  and  _143
REMARK   63  A    between atoms: _143  and  _144
REMARK   64  A    between atoms: _143  and  _146
REMARK   65  A    between atoms: _146  and  _147
REMARK   66  A    between atoms: _150  and  _152
REMARK   67  A    between atoms: _152  and  _153
REMARK   68  A    between atoms: _155  and  _157
REMARK   69  A    between atoms: _157  and  _158
REMARK   70  A    between atoms: _160  and  _162
REMARK   71  A    between atoms: _162  and  _163
REMARK   72  A    between atoms: _162  and  _165
REMARK   73  A    between atoms: _165  and  _166
REMARK   74  A    between atoms: _172  and  _174
REMARK   75  A    between atoms: _174  and  _175
REMARK   76  A    between atoms: _174  and  _177
REMARK   77  A    between atoms: _177  and  _178
REMARK   78  A    between atoms: _181  and  _183
REMARK   79  A    between atoms: _183  and  _184
REMARK   80  A    between atoms: _183  and  _186
REMARK   81  A    between atoms: _189  and  _191
REMARK   82  A    between atoms: _191  and  _192
REMARK   83  A    between atoms: _191  and  _194
REMARK   84  A    between atoms: _194  and  _195
REMARK   85  A    between atoms: _199  and  _200
REMARK   86  A    between atoms: _205  and  _207
REMARK   87  A    between atoms: _207  and  _208
REMARK   88  A    between atoms: _207  and  _210
REMARK   89  A    between atoms: _210  and  _211
REMARK   90  A    between atoms: _217  and  _218
REMARK   91  A    between atoms: _223  and  _225
REMARK   92  A    between atoms: _225  and  _226
REMARK   93  A    between atoms: _225  and  _228
REMARK   94  A    between atoms: _231  and  _233
REMARK   95  A    between atoms: _233  and  _234
REMARK   96  A    between atoms: _233  and  _236
REMARK   97  A    between atoms: _236  and  _237
REMARK   98  A    between atoms: _242  and  _244
REMARK   99  A    between atoms: _244  and  _245
REMARK  100  A    between atoms: _244  and  _247
REMARK  101  A    between atoms: _247  and  _248
REMARK  102  A    between atoms: _251  and  _253
REMARK  103  A    between atoms: _253  and  _254
REMARK  104  A    between atoms: _253  and  _256
REMARK  105  A    between atoms: _256  and  _257
REMARK  106  A    between atoms: _260  and  _262
REMARK  107  A    between atoms: _262  and  _263
REMARK  108  A    between atoms: _265  and  _267
REMARK  109  A    between atoms: _267  and  _268
REMARK  110  A    between atoms: _267  and  _270
REMARK  111  A    between atoms: _270  and  _271
REMARK  112  A    between atoms: _271  and  _272
REMARK  113  A    between atoms: _272  and  _273
REMARK  114  A    between atoms: _282  and  _284
REMARK  115  A    between atoms: _284  and  _285
REMARK  116  A    between atoms: _284  and  _287
REMARK  117  A    between atoms: _287  and  _288
REMARK  118  A    between atoms: _293  and  _295
REMARK  119  A    between atoms: _295  and  _296
REMARK  120  A    between atoms: _295  and  _298
REMARK  121  A    between atoms: _298  and  _299
REMARK  122  A    between atoms: _299  and  _300
REMARK  123  A    between atoms: _300  and  _301
REMARK  124  A    between atoms: _310  and  _312
REMARK  125  A    between atoms: _312  and  _313
REMARK  126  A    between atoms: _312  and  _315
REMARK  127  A    between atoms: _315  and  _316
REMARK  128  A    between atoms: _319  and  _321
REMARK  129  A    between atoms: _321  and  _322
REMARK  130  A    between atoms: _321  and  _324
REMARK  131  A    between atoms: _324  and  _325
REMARK  132  A    between atoms: _328  and  _330
REMARK  133  A    between atoms: _330  and  _331
REMARK  134  A    between atoms: _330  and  _333
REMARK  135  A    between atoms: _333  and  _334
REMARK  136  A    between atoms: _337  and  _339
REMARK  137  A    between atoms: _339  and  _340
REMARK  138  A    between atoms: _339  and  _342
REMARK  139  A    between atoms: _342  and  _343
REMARK  140  A    between atoms: _346  and  _348
REMARK  141  A    between atoms: _348  and  _349
REMARK  142  A    between atoms: _351  and  _353
REMARK  143  A    between atoms: _353  and  _354
REMARK  144  A    between atoms: _357  and  _359
REMARK  145  A    between atoms: _359  and  _360
REMARK  146  A    between atoms: _359  and  _362
REMARK  147  A    between atoms: _362  and  _363
REMARK  148  A    between atoms: _366  and  _368
REMARK  149  A    between atoms: _368  and  _369
REMARK  150  A    between atoms: _368  and  _371
REMARK  151  A    between atoms: _371  and  _372
REMARK  152  A    between atoms: _375  and  _377
REMARK  153  A    between atoms: _377  and  _378
REMARK  154  A    between atoms: _377  and  _380
REMARK  155  A    between atoms: _380  and  _381
REMARK  156  A    between atoms: _384  and  _386
REMARK  157  A    between atoms: _386  and  _387
REMARK  158  A    between atoms: _386  and  _389
REMARK  159  A    between atoms: _392  and  _394
REMARK  160  A    between atoms: _394  and  _395
REMARK  161  A    between atoms: _394  and  _397
REMARK  162  A    between atoms: _397  and  _398
REMARK  163  A    between atoms: _401  and  _403
REMARK  164  A    between atoms: _403  and  _404
REMARK  165  A    between atoms: _403  and  _406
REMARK  166  A    between atoms: _406  and  _407
REMARK  167  A    between atoms: _407  and  _408
REMARK  168  A    between atoms: _410  and  _412
REMARK  169  A    between atoms: _412  and  _413
REMARK  170  A    between atoms: _412  and  _415
REMARK  171  A    between atoms: _415  and  _416
REMARK  172  A    between atoms: _419  and  _421
REMARK  173  A    between atoms: _421  and  _422
REMARK  174  A    between atoms: _424  and  _426
REMARK  175  A    between atoms: _426  and  _427
REMARK  176  A    between atoms: _429  and  _431
REMARK  177  A    between atoms: _431  and  _432
REMARK  178  A    between atoms: _431  and  _434
REMARK  179  A    between atoms: _434  and  _435
REMARK  180  A    between atoms: _438  and  _440
REMARK  181  A    between atoms: _440  and  _441
REMARK  182  A    between atoms: _443  and  _445
REMARK  183  A    between atoms: _445  and  _446
REMARK  184  A    between atoms: _448  and  _450
REMARK  185  A    between atoms: _450  and  _451
REMARK  186  A    between atoms: _450  and  _453
REMARK  187  A    between atoms: _453  and  _454
REMARK  188  A    between atoms: _460  and  _462
REMARK  189  A    between atoms: _462  and  _463
REMARK  190  A    between atoms: _462  and  _465
REMARK  191  A    between atoms: _465  and  _466
REMARK  192  A    between atoms: _469  and  _471
REMARK  193  A    between atoms: _471  and  _472
REMARK  194  A    between atoms: _471  and  _474
REMARK  195  A    between atoms: _477  and  _479
REMARK  196  A    between atoms: _479  and  _480
REMARK  197  A    between atoms: _479  and  _482
REMARK  198  A    between atoms: _482  and  _483
REMARK  199  A    between atoms: _487  and  _488
REMARK  200  A    between atoms: _493  and  _495
REMARK  201  A    between atoms: _495  and  _496
REMARK  202  A    between atoms: _495  and  _498
REMARK  203  A    between atoms: _498  and  _499
REMARK  204  A    between atoms: _505  and  _506
REMARK  205  A    between atoms: _511  and  _513
REMARK  206  A    between atoms: _513  and  _514
REMARK  207  A    between atoms: _513  and  _516
REMARK  208  A    between atoms: _519  and  _521
REMARK  209  A    between atoms: _521  and  _522
REMARK  210  A    between atoms: _521  and  _524
REMARK  211  A    between atoms: _524  and  _525
REMARK  212  A    between atoms: _530  and  _532
REMARK  213  A    between atoms: _532  and  _533
REMARK  214  A    between atoms: _532  and  _535
REMARK  215  A    between atoms: _535  and  _536
REMARK  216  A    between atoms: _539  and  _541
REMARK  217  A    between atoms: _541  and  _542
REMARK  218  A    between atoms: _541  and  _544
REMARK  219  A    between atoms: _544  and  _545
REMARK  220  A    between atoms: _548  and  _550
REMARK  221  A    between atoms: _550  and  _551
REMARK  222  A    between atoms: _553  and  _555
REMARK  223  A    between atoms: _555  and  _556
REMARK  224  A    between atoms: _555  and  _558
REMARK  225  A    between atoms: _558  and  _559
REMARK  226  A    between atoms: _559  and  _560
REMARK  227  A    between atoms: _560  and  _561
REMARK  228  A    between atoms: _570  and  _572
REMARK  229  A    between atoms: _572  and  _573
REMARK  230  A    between atoms: _572  and  _575
REMARK  231  A    between atoms: _575  and  _576
REMARK                            x       y       z     vdW  Elec       q    Type
REMARK                         _______ _______ _______ _____ _____    ______ ____
ROOT
ATOM      1  C   GLY A   5      21.311  -6.310  19.299  0.00  0.00    +0.243 C 
ATOM      2  O   GLY A   5      21.573  -7.310  19.962  0.00  0.00    -0.273 OA
ATOM      3  N   ILE A   6      21.858  -5.129  19.550  0.00  0.00    -0.297 N 
ATOM      4  H   ILE A   6      21.609  -4.292  18.985  0.00  0.00    +0.150 HD
ENDROOT
BRANCH   3   5
ATOM      5  CA  ILE A   6      22.817  -5.038  20.640  0.00  0.00    +0.149 C 
BRANCH   5   6
ATOM      6  C   ILE A   6      22.006  -5.254  21.914  0.00  0.00    +0.241 C 
ATOM      7  N   GLY A   7      22.584  -5.999  22.844  0.00  0.00    -0.295 N 
ATOM      8  H   GLY A   7      23.537  -6.376  22.666  0.00  0.00    +0.150 HD
ATOM      9  O   ILE A   6      20.866  -4.798  22.026  0.00  0.00    -0.273 OA
BRANCH   7  10
ATOM     10  CA  GLY A   7      21.930  -6.309  24.109  0.00  0.00    +0.176 C 
BRANCH  10  11
ATOM     11  C   GLY A   7      21.140  -7.599  24.144  0.00  0.00    +0.243 C 
ATOM     12  O   GLY A   7      20.759  -8.040  25.223  0.00  0.00    -0.273 OA
ATOM     13  N   GLY A   8      20.889  -8.207  22.988  0.00  0.00    -0.295 N 
ATOM     14  H   GLY A   8      21.165  -7.742  22.100  0.00  0.00    +0.150 HD
BRANCH  13  15
ATOM     15  CA  GLY A   8      20.235  -9.512  22.935  0.00  0.00    +0.176 C 
BRANCH  15  16
ATOM     16  C   GLY A   8      18.936  -9.537  22.153  0.00  0.00    +0.243 C 
ATOM     17  N   PHE A   9      18.121 -10.551  22.429  0.00  0.00    -0.297 N 
ATOM     18  H   PHE A   9      18.393 -11.217  23.180  0.00  0.00    +0.150 HD
ATOM     19  O   GLY A   8      18.685  -8.668  21.319  0.00  0.00    -0.273 OA
BRANCH  17  20
ATOM     20  CA  PHE A   9      16.869 -10.768  21.728  0.00  0.00    +0.153 C 
BRANCH  20  21
ATOM     21  C   PHE A   9      15.681 -10.352  22.580  0.00  0.00    +0.241 C 
ATOM     22  O   PHE A   9      15.720 -10.442  23.809  0.00  0.00    -0.273 OA
ATOM     23  N   ILE A  10      14.635  -9.894  21.898  0.00  0.00    -0.298 N 
ATOM     24  H   ILE A  10      14.731  -9.769  20.870  0.00  0.00    +0.150 HD
BRANCH  23  25
ATOM     25  CA  ILE A  10      13.367  -9.560  22.519  0.00  0.00    +0.137 C 
BRANCH  25  26
ATOM     26  C   ILE A  10      12.234 -10.251  21.771  0.00  0.00    +0.227 C 
ATOM     27  O   ILE A  10      12.347 -10.579  20.588  0.00  0.00    -0.286 OA
ENDBRANCH  25  26
BRANCH  25  28
ATOM     28  CB  ILE A  10      13.113  -8.041  22.547  0.00  0.00    +0.026 C 
ATOM     29  CG2 ILE A  10      14.122  -7.377  23.455  0.00  0.00    +0.002 C 
BRANCH  28  30
ATOM     30  CG1 ILE A  10      13.180  -7.419  21.149  0.00  0.00    +0.002 C 
ATOM     31  CD1 ILE A  10      12.481  -6.075  21.046  0.00  0.00    +0.000 C 
ENDBRANCH  28  30
ENDBRANCH  25  28
ENDBRANCH  23  25
ENDBRANCH  20  21
BRANCH  20  32
ATOM     32  CB  PHE A   9      16.733 -12.240  21.330  0.00  0.00    +0.055 C 
BRANCH  32  33
ATOM     33  CG  PHE A   9      17.473 -12.593  20.070  0.00  0.00    -0.020 A 
ATOM     34  CD2 PHE A   9      18.840 -12.784  20.083  0.00  0.00    -0.004 A 
ATOM     35  CE2 PHE A   9      19.522 -13.094  18.929  0.00  0.00    -0.000 A 
ATOM     36  CZ  PHE A   9      18.844 -13.203  17.736  0.00  0.00    -0.000 A 
ATOM     37  CE1 PHE A   9      17.484 -13.014  17.704  0.00  0.00    -0.000 A 
ATOM     38  CD1 PHE A   9      16.803 -12.700  18.865  0.00  0.00    -0.004 A 
ENDBRANCH  32  33
ENDBRANCH  20  32
ENDBRANCH  17  20
ENDBRANCH  15  16
ENDBRANCH  13  15
ENDBRANCH  10  11
ENDBRANCH   7  10
ENDBRANCH   5   6
BRANCH   5  39
ATOM     39  CB  ILE A   6      23.654  -3.736  20.657  0.00  0.00    +0.027 C 
ATOM     40  CG2 ILE A   6      23.895  -3.193  19.252  0.00  0.00    +0.002 C 
BRANCH  39  41
ATOM     41  CG1 ILE A   6      23.062  -2.684  21.592  0.00  0.00    +0.002 C 
ATOM     42  CD1 ILE A   6      23.859  -2.487  22.846  0.00  0.00    +0.000 C 
ENDBRANCH  39  41
ENDBRANCH   5  39
ENDBRANCH   3   5
BRANCH   1  43
ATOM     43  CA  GLY A   5      20.325  -6.393  18.160  0.00  0.00    +0.176 C 
BRANCH  43  45
ATOM     44  C   GLY A   4      18.570  -7.985  17.662  0.00  0.00    +0.243 C 
ATOM     45  N   GLY A   5      19.416  -7.460  18.533  0.00  0.00    -0.295 N 
ATOM     46  H   GLY A   5      19.430  -7.821  19.508  0.00  0.00    +0.150 HD
ATOM     47  O   GLY A   4      18.368  -7.542  16.530  0.00  0.00    -0.273 OA
BRANCH  44  48
ATOM     48  CA  GLY A   4      17.844  -9.196  18.189  0.00  0.00    +0.176 C 
BRANCH  48  51
ATOM     49  C   ILE A   3      15.531  -9.791  17.957  0.00  0.00    +0.241 C 
ATOM     50  O   ILE A   3      15.344  -9.654  19.162  0.00  0.00    -0.273 OA
ATOM     51  N   GLY A   4      16.697  -9.545  17.383  0.00  0.00    -0.295 N 
ATOM     52  H   GLY A   4      16.788  -9.603  16.349  0.00  0.00    +0.150 HD
BRANCH  49  53
ATOM     53  CA  ILE A   3      14.428 -10.268  17.028  0.00  0.00    +0.149 C 
BRANCH  53  55
ATOM     54  C   MET A   2      13.086 -12.267  17.349  0.00  0.00    +0.241 C 
ATOM     55  N   ILE A   3      13.484 -11.078  17.793  0.00  0.00    -0.297 N 
ATOM     56  H   ILE A   3      13.118 -10.720  18.698  0.00  0.00    +0.150 HD
ATOM     57  O   MET A   2      13.385 -12.702  16.236  0.00  0.00    -0.273 OA
BRANCH  54  58
ATOM     58  CA  MET A   2      12.213 -13.090  18.288  0.00  0.00    +0.149 C 
BRANCH  58  61
ATOM     59  C   LYS A   1       9.823 -13.113  17.725  0.00  0.00    +0.238 C 
ATOM     60  O   LYS A   1       9.501 -12.369  18.649  0.00  0.00    -0.274 OA
ATOM     61  N   MET A   2      11.054 -13.587  17.552  0.00  0.00    -0.297 N 
ATOM     62  H   MET A   2      11.198 -14.349  16.859  0.00  0.00    +0.150 HD
BRANCH  59  63
ATOM     63  CA  LYS A   1       8.787 -13.570  16.709  0.00  0.00    +0.145 C 
BRANCH  63  64
ATOM     64  N   LYS A   1       7.501 -13.552  17.386  0.00  0.00    -0.238 NA
ATOM     65  H   LYS A   1       7.325 -12.829  18.113  0.00  0.00    +0.142 HD
ENDBRANCH  63  64
BRANCH  63  66
ATOM     66  CB  LYS A   1       8.759 -12.606  15.524  0.00  0.00    +0.026 C 
BRANCH  66  67
ATOM     67  CG  LYS A   1       9.974 -12.650  14.611  0.00  0.00    -0.000 C 
BRANCH  67  68
ATOM     68  CD  LYS A   1       9.830 -11.631  13.488  0.00  0.00    -0.024 C 
BRANCH  68  69
ATOM     69  CE  LYS A   1      11.065 -11.595  12.618  0.00  0.00    -0.086 C 
BRANCH  69  70
ATOM     70  NZ  LYS A   1      10.988 -12.621  11.552  0.00  0.00    +0.380 N 
ATOM     71  HZ1 LYS A   1      10.909 -13.563  11.985  0.00  0.00    -0.089 HD
ATOM     72  HZ2 LYS A   1      11.847 -12.577  10.968  0.00  0.00    -0.089 HD
ATOM     73  HZ3 LYS A   1      10.154 -12.440  10.958  0.00  0.00    -0.089 HD
ENDBRANCH  69  70
ENDBRANCH  68  69
ENDBRANCH  67  68
ENDBRANCH  66  67
ENDBRANCH  63  66
ENDBRANCH  59  63
ENDBRANCH  58  61
BRANCH  58  74
ATOM     74  CB  MET A   2      13.049 -14.256  18.822  0.00  0.00    +0.041 C 
BRANCH  74  75
ATOM     75  CG  MET A   2      12.346 -15.122  19.843  0.00  0.00    +0.060 C 
BRANCH  75  76
ATOM     76  SD  MET A   2      11.920 -14.217  21.335  0.00  0.00    -0.139 S 
ATOM     77  CE  MET A   2      13.504 -14.076  22.153  0.00  0.00    +0.069 C 
ENDBRANCH  75  76
ENDBRANCH  74  75
ENDBRANCH  58  74
ENDBRANCH  54  58
ENDBRANCH  53  55
BRANCH  53  78
ATOM     78  CB  ILE A   3      13.764  -9.059  16.346  0.00  0.00    +0.027 C 
ATOM     79  CG2 ILE A   3      12.803  -9.535  15.280  0.00  0.00    +0.002 C 
BRANCH  78  80
ATOM     80  CG1 ILE A   3      13.076  -8.160  17.376  0.00  0.00    +0.002 C 
ATOM     81  CD1 ILE A   3      12.678  -6.805  16.845  0.00  0.00    +0.000 C 
ENDBRANCH  78  80
ENDBRANCH  53  78
ENDBRANCH  49  53
ENDBRANCH  48  51
ENDBRANCH  44  48
ENDBRANCH  43  45
ENDBRANCH   1  43
TORSDOF 36
REMARK  Name = ../refined-set-2016/2fgv/2fgv_pocket.pdb
REMARK  231 active torsions:
REMARK  status: ('A' for Active; 'I' for Inactive)
REMARK    1  A    between atoms: _1  and  _3
REMARK    2  A    between atoms: _3  and  _4
REMARK    3  A    between atoms: _3  and  _6
REMARK    4  A    between atoms: _6  and  _7
REMARK    5  A    between atoms: _7  and  _8
REMARK    6  A    between atoms: _8  and  _9
REMARK    7  A    between atoms: _18  and  _20
REMARK    8  A    between atoms: _20  and  _21
REMARK    9  A    between atoms: _20  and  _23
REMARK   10  A    between atoms: _23  and  _24
REMARK   11  A    between atoms: _27  and  _29
REMARK   12  A    between atoms: _29  and  _30
REMARK   13  A    between atoms: _29  and  _32
REMARK   14  A    between atoms: _32  and  _33
REMARK   15  A    between atoms: _36  and  _38
REMARK   16  A    between atoms: _38  and  _39
REMARK   17  A    between atoms: _38  and  _41
REMARK   18  A    between atoms: _41  and  _42
REMARK   19  A    between atoms: _45  and  _47
REMARK   20  A    between atoms: _47  and  _48
REMARK   21  A    between atoms: _47  and  _50
REMARK   22  A    between atoms: _50  and  _51
REMARK   23  A    between atoms: _54  and  _56
REMARK   24  A    between atoms: _56  and  _57
REMARK   25  A    between atoms: _59  and  _61
REMARK   26  A    between atoms: _61  and  _62
REMARK   27  A    between atoms: _65  and  _67
REMARK   28  A    between atoms: _67  and  _68
REMARK   29  A    between atoms: _67  and  _70
REMARK   30  A    between atoms: _70  and  _71
REMARK   31  A    between atoms: _74  and  _76
REMARK   32  A    between atoms: _76  and  _77
REMARK   33  A    between atoms: _76  and  _79
REMARK   34  A    between atoms: _79  and  _80
REMARK   35  A    between atoms: _83  and  _85
REMARK   36  A    between atoms: _85  and  _86
REMARK   37  A    between atoms: _85  and  _88
REMARK   38  A    between atoms: _88  and  _89
REMARK   39  A    between atoms: _92  and  _94
REMARK   40  A    between atoms: _94  and  _95
REMARK   41  A    between atoms: _94  and  _97
REMARK   42  A    between atoms: _100  and  _102
REMARK   43  A    between atoms: _102  and  _103
REMARK   44  A    between atoms: _102  and  _105
REMARK   45  A    between atoms: _105  and  _106
REMARK   46  A    between atoms: _106  and  _107
REMARK   47  A    between atoms: _107  and  _108
REMARK   48  A    between atoms: _108  and  _109
REMARK   49  A    between atoms: _113  and  _115
REMARK   50  A    between atoms: _115  and  _116
REMARK   51  A    between atoms: _115  and  _118
REMARK   52  A    between atoms: _118  and  _119
REMARK   53  A    between atoms: _119  and  _120
REMARK   54  A    between atoms: _122  and  _124
REMARK   55  A    between atoms: _124  and  _125
REMARK   56  A    between atoms: _124  and  _127
REMARK   57  A    between atoms: _127  and  _128
REMARK   58  A    between atoms: _131  and  _133
REMARK   59  A    between atoms: _133  and  _134
REMARK   60  A    between atoms: _136  and  _138
REMARK   61  A    between atoms: _138  and  _139
REMARK   62  A    between atoms: _141  and  _143
REMARK   63  A    between atoms: _143  and  _144
REMARK   64  A    between atoms: _143  and  _146
REMARK   65  A    between atoms: _146  and  _147
REMARK   66  A    between atoms: _150  and  _152
REMARK   67  A    between atoms: _152  and  _153
REMARK   68  A    between atoms: _155  and  _157
REMARK   69  A    between atoms: _157  and  _158
REMARK   70  A    between atoms: _160  and  _162
REMARK   71  A    between atoms: _162  and  _163
REMARK   72  A    between atoms: _162  and  _165
REMARK   73  A    between atoms: _165  and  _166
REMARK   74  A    between atoms: _172  and  _174
REMARK   75  A    between atoms: _174  and  _175
REMARK   76  A    between atoms: _174  and  _177
REMARK   77  A    between atoms: _177  and  _178
REMARK   78  A    between atoms: _181  and  _183
REMARK   79  A    between atoms: _183  and  _184
REMARK   80  A    between atoms: _183  and  _186
REMARK   81  A    between atoms: _189  and  _191
REMARK   82  A    between atoms: _191  and  _192
REMARK   83  A    between atoms: _191  and  _194
REMARK   84  A    between atoms: _194  and  _195
REMARK   85  A    between atoms: _199  and  _200
REMARK   86  A    between atoms: _205  and  _207
REMARK   87  A    between atoms: _207  and  _208
REMARK   88  A    between atoms: _207  and  _210
REMARK   89  A    between atoms: _210  and  _211
REMARK   90  A    between atoms: _217  and  _218
REMARK   91  A    between atoms: _223  and  _225
REMARK   92  A    between atoms: _225  and  _226
REMARK   93  A    between atoms: _225  and  _228
REMARK   94  A    between atoms: _231  and  _233
REMARK   95  A    between atoms: _233  and  _234
REMARK   96  A    between atoms: _233  and  _236
REMARK   97  A    between atoms: _236  and  _237
REMARK   98  A    between atoms: _242  and  _244
REMARK   99  A    between atoms: _244  and  _245
REMARK  100  A    between atoms: _244  and  _247
REMARK  101  A    between atoms: _247  and  _248
REMARK  102  A    between atoms: _251  and  _253
REMARK  103  A    between atoms: _253  and  _254
REMARK  104  A    between atoms: _253  and  _256
REMARK  105  A    between atoms: _256  and  _257
REMARK  106  A    between atoms: _260  and  _262
REMARK  107  A    between atoms: _262  and  _263
REMARK  108  A    between atoms: _265  and  _267
REMARK  109  A    between atoms: _267  and  _268
REMARK  110  A    between atoms: _267  and  _270
REMARK  111  A    between atoms: _270  and  _271
REMARK  112  A    between atoms: _271  and  _272
REMARK  113  A    between atoms: _272  and  _273
REMARK  114  A    between atoms: _282  and  _284
REMARK  115  A    between atoms: _284  and  _285
REMARK  116  A    between atoms: _284  and  _287
REMARK  117  A    between atoms: _287  and  _288
REMARK  118  A    between atoms: _293  and  _295
REMARK  119  A    between atoms: _295  and  _296
REMARK  120  A    between atoms: _295  and  _298
REMARK  121  A    between atoms: _298  and  _299
REMARK  122  A    between atoms: _299  and  _300
REMARK  123  A    between atoms: _300  and  _301
REMARK  124  A    between atoms: _310  and  _312
REMARK  125  A    between atoms: _312  and  _313
REMARK  126  A    between atoms: _312  and  _315
REMARK  127  A    between atoms: _315  and  _316
REMARK  128  A    between atoms: _319  and  _321
REMARK  129  A    between atoms: _321  and  _322
REMARK  130  A    between atoms: _321  and  _324
REMARK  131  A    between atoms: _324  and  _325
REMARK  132  A    between atoms: _328  and  _330
REMARK  133  A    between atoms: _330  and  _331
REMARK  134  A    between atoms: _330  and  _333
REMARK  135  A    between atoms: _333  and  _334
REMARK  136  A    between atoms: _337  and  _339
REMARK  137  A    between atoms: _339  and  _340
REMARK  138  A    between atoms: _339  and  _342
REMARK  139  A    between atoms: _342  and  _343
REMARK  140  A    between atoms: _346  and  _348
REMARK  141  A    between atoms: _348  and  _349
REMARK  142  A    between atoms: _351  and  _353
REMARK  143  A    between atoms: _353  and  _354
REMARK  144  A    between atoms: _357  and  _359
REMARK  145  A    between atoms: _359  and  _360
REMARK  146  A    between atoms: _359  and  _362
REMARK  147  A    between atoms: _362  and  _363
REMARK  148  A    between atoms: _366  and  _368
REMARK  149  A    between atoms: _368  and  _369
REMARK  150  A    between atoms: _368  and  _371
REMARK  151  A    between atoms: _371  and  _372
REMARK  152  A    between atoms: _375  and  _377
REMARK  153  A    between atoms: _377  and  _378
REMARK  154  A    between atoms: _377  and  _380
REMARK  155  A    between atoms: _380  and  _381
REMARK  156  A    between atoms: _384  and  _386
REMARK  157  A    between atoms: _386  and  _387
REMARK  158  A    between atoms: _386  and  _389
REMARK  159  A    between atoms: _392  and  _394
REMARK  160  A    between atoms: _394  and  _395
REMARK  161  A    between atoms: _394  and  _397
REMARK  162  A    between atoms: _397  and  _398
REMARK  163  A    between atoms: _401  and  _403
REMARK  164  A    between atoms: _403  and  _404
REMARK  165  A    between atoms: _403  and  _406
REMARK  166  A    between atoms: _406  and  _407
REMARK  167  A    between atoms: _407  and  _408
REMARK  168  A    between atoms: _410  and  _412
REMARK  169  A    between atoms: _412  and  _413
REMARK  170  A    between atoms: _412  and  _415
REMARK  171  A    between atoms: _415  and  _416
REMARK  172  A    between atoms: _419  and  _421
REMARK  173  A    between atoms: _421  and  _422
REMARK  174  A    between atoms: _424  and  _426
REMARK  175  A    between atoms: _426  and  _427
REMARK  176  A    between atoms: _429  and  _431
REMARK  177  A    between atoms: _431  and  _432
REMARK  178  A    between atoms: _431  and  _434
REMARK  179  A    between atoms: _434  and  _435
REMARK  180  A    between atoms: _438  and  _440
REMARK  181  A    between atoms: _440  and  _441
REMARK  182  A    between atoms: _443  and  _445
REMARK  183  A    between atoms: _445  and  _446
REMARK  184  A    between atoms: _448  and  _450
REMARK  185  A    between atoms: _450  and  _451
REMARK  186  A    between atoms: _450  and  _453
REMARK  187  A    between atoms: _453  and  _454
REMARK  188  A    between atoms: _460  and  _462
REMARK  189  A    between atoms: _462  and  _463
REMARK  190  A    between atoms: _462  and  _465
REMARK  191  A    between atoms: _465  and  _466
REMARK  192  A    between atoms: _469  and  _471
REMARK  193  A    between atoms: _471  and  _472
REMARK  194  A    between atoms: _471  and  _474
REMARK  195  A    between atoms: _477  and  _479
REMARK  196  A    between atoms: _479  and  _480
REMARK  197  A    between atoms: _479  and  _482
REMARK  198  A    between atoms: _482  and  _483
REMARK  199  A    between atoms: _487  and  _488
REMARK  200  A    between atoms: _493  and  _495
REMARK  201  A    between atoms: _495  and  _496
REMARK  202  A    between atoms: _495  and  _498
REMARK  203  A    between atoms: _498  and  _499
REMARK  204  A    between atoms: _505  and  _506
REMARK  205  A    between atoms: _511  and  _513
REMARK  206  A    between atoms: _513  and  _514
REMARK  207  A    between atoms: _513  and  _516
REMARK  208  A    between atoms: _519  and  _521
REMARK  209  A    between atoms: _521  and  _522
REMARK  210  A    between atoms: _521  and  _524
REMARK  211  A    between atoms: _524  and  _525
REMARK  212  A    between atoms: _530  and  _532
REMARK  213  A    between atoms: _532  and  _533
REMARK  214  A    between atoms: _532  and  _535
REMARK  215  A    between atoms: _535  and  _536
REMARK  216  A    between atoms: _539  and  _541
REMARK  217  A    between atoms: _541  and  _542
REMARK  218  A    between atoms: _541  and  _544
REMARK  219  A    between atoms: _544  and  _545
REMARK  220  A    between atoms: _548  and  _550
REMARK  221  A    between atoms: _550  and  _551
REMARK  222  A    between atoms: _553  and  _555
REMARK  223  A    between atoms: _555  and  _556
REMARK  224  A    between atoms: _555  and  _558
REMARK  225  A    between atoms: _558  and  _559
REMARK  226  A    between atoms: _559  and  _560
REMARK  227  A    between atoms: _560  and  _561
REMARK  228  A    between atoms: _570  and  _572
REMARK  229  A    between atoms: _572  and  _573
REMARK  230  A    between atoms: _572  and  _575
REMARK  231  A    between atoms: _575  and  _576
REMARK                            x       y       z     vdW  Elec       q    Type
REMARK                         _______ _______ _______ _____ _____    ______ ____
ROOT
ATOM      1  CA  VAL A   1       7.720  -9.097  19.529  0.00  0.00    +0.133 C 
ENDROOT
BRANCH   1   2
ATOM      2  CB  VAL A   1       8.493  -8.298  18.462  0.00  0.00    +0.023 C 
ATOM      3  CG2 VAL A   1       9.650  -7.556  19.111  0.00  0.00    +0.002 C 
ATOM      4  CG1 VAL A   1       9.012  -9.206  17.358  0.00  0.00    +0.002 C 
ENDBRANCH   1   2
BRANCH   1   5
ATOM      5  N   VAL A   1       8.559 -10.090  20.172  0.00  0.00    -0.239 NA
ATOM      6  H   VAL A   1       8.787 -10.967  19.661  0.00  0.00    +0.142 HD
ENDBRANCH   1   5
BRANCH   1   7
ATOM      7  C   VAL A   1       6.530  -9.766  18.863  0.00  0.00    +0.224 C 
ATOM      8  O   VAL A   1       6.528 -10.974  18.637  0.00  0.00    -0.287 OA
ENDBRANCH   1   7
TORSDOF 3
REMARK  Name = ../refined-set-2016/2fgv/2fgv_pocket.pdb
REMARK  231 active torsions:
REMARK  status: ('A' for Active; 'I' for Inactive)
REMARK    1  A    between atoms: _1  and  _3
REMARK    2  A    between atoms: _3  and  _4
REMARK    3  A    between atoms: _3  and  _6
REMARK    4  A    between atoms: _6  and  _7
REMARK    5  A    between atoms: _7  and  _8
REMARK    6  A    between atoms: _8  and  _9
REMARK    7  A    between atoms: _18  and  _20
REMARK    8  A    between atoms: _20  and  _21
REMARK    9  A    between atoms: _20  and  _23
REMARK   10  A    between atoms: _23  and  _24
REMARK   11  A    between atoms: _27  and  _29
REMARK   12  A    between atoms: _29  and  _30
REMARK   13  A    between atoms: _29  and  _32
REMARK   14  A    between atoms: _32  and  _33
REMARK   15  A    between atoms: _36  and  _38
REMARK   16  A    between atoms: _38  and  _39
REMARK   17  A    between atoms: _38  and  _41
REMARK   18  A    between atoms: _41  and  _42
REMARK   19  A    between atoms: _45  and  _47
REMARK   20  A    between atoms: _47  and  _48
REMARK   21  A    between atoms: _47  and  _50
REMARK   22  A    between atoms: _50  and  _51
REMARK   23  A    between atoms: _54  and  _56
REMARK   24  A    between atoms: _56  and  _57
REMARK   25  A    between atoms: _59  and  _61
REMARK   26  A    between atoms: _61  and  _62
REMARK   27  A    between atoms: _65  and  _67
REMARK   28  A    between atoms: _67  and  _68
REMARK   29  A    between atoms: _67  and  _70
REMARK   30  A    between atoms: _70  and  _71
REMARK   31  A    between atoms: _74  and  _76
REMARK   32  A    between atoms: _76  and  _77
REMARK   33  A    between atoms: _76  and  _79
REMARK   34  A    between atoms: _79  and  _80
REMARK   35  A    between atoms: _83  and  _85
REMARK   36  A    between atoms: _85  and  _86
REMARK   37  A    between atoms: _85  and  _88
REMARK   38  A    between atoms: _88  and  _89
REMARK   39  A    between atoms: _92  and  _94
REMARK   40  A    between atoms: _94  and  _95
REMARK   41  A    between atoms: _94  and  _97
REMARK   42  A    between atoms: _100  and  _102
REMARK   43  A    between atoms: _102  and  _103
REMARK   44  A    between atoms: _102  and  _105
REMARK   45  A    between atoms: _105  and  _106
REMARK   46  A    between atoms: _106  and  _107
REMARK   47  A    between atoms: _107  and  _108
REMARK   48  A    between atoms: _108  and  _109
REMARK   49  A    between atoms: _113  and  _115
REMARK   50  A    between atoms: _115  and  _116
REMARK   51  A    between atoms: _115  and  _118
REMARK   52  A    between atoms: _118  and  _119
REMARK   53  A    between atoms: _119  and  _120
REMARK   54  A    between atoms: _122  and  _124
REMARK   55  A    between atoms: _124  and  _125
REMARK   56  A    between atoms: _124  and  _127
REMARK   57  A    between atoms: _127  and  _128
REMARK   58  A    between atoms: _131  and  _133
REMARK   59  A    between atoms: _133  and  _134
REMARK   60  A    between atoms: _136  and  _138
REMARK   61  A    between atoms: _138  and  _139
REMARK   62  A    between atoms: _141  and  _143
REMARK   63  A    between atoms: _143  and  _144
REMARK   64  A    between atoms: _143  and  _146
REMARK   65  A    between atoms: _146  and  _147
REMARK   66  A    between atoms: _150  and  _152
REMARK   67  A    between atoms: _152  and  _153
REMARK   68  A    between atoms: _155  and  _157
REMARK   69  A    between atoms: _157  and  _158
REMARK   70  A    between atoms: _160  and  _162
REMARK   71  A    between atoms: _162  and  _163
REMARK   72  A    between atoms: _162  and  _165
REMARK   73  A    between atoms: _165  and  _166
REMARK   74  A    between atoms: _172  and  _174
REMARK   75  A    between atoms: _174  and  _175
REMARK   76  A    between atoms: _174  and  _177
REMARK   77  A    between atoms: _177  and  _178
REMARK   78  A    between atoms: _181  and  _183
REMARK   79  A    between atoms: _183  and  _184
REMARK   80  A    between atoms: _183  and  _186
REMARK   81  A    between atoms: _189  and  _191
REMARK   82  A    between atoms: _191  and  _192
REMARK   83  A    between atoms: _191  and  _194
REMARK   84  A    between atoms: _194  and  _195
REMARK   85  A    between atoms: _199  and  _200
REMARK   86  A    between atoms: _205  and  _207
REMARK   87  A    between atoms: _207  and  _208
REMARK   88  A    between atoms: _207  and  _210
REMARK   89  A    between atoms: _210  and  _211
REMARK   90  A    between atoms: _217  and  _218
REMARK   91  A    between atoms: _223  and  _225
REMARK   92  A    between atoms: _225  and  _226
REMARK   93  A    between atoms: _225  and  _228
REMARK   94  A    between atoms: _231  and  _233
REMARK   95  A    between atoms: _233  and  _234
REMARK   96  A    between atoms: _233  and  _236
REMARK   97  A    between atoms: _236  and  _237
REMARK   98  A    between atoms: _242  and  _244
REMARK   99  A    between atoms: _244  and  _245
REMARK  100  A    between atoms: _244  and  _247
REMARK  101  A    between atoms: _247  and  _248
REMARK  102  A    between atoms: _251  and  _253
REMARK  103  A    between atoms: _253  and  _254
REMARK  104  A    between atoms: _253  and  _256
REMARK  105  A    between atoms: _256  and  _257
REMARK  106  A    between atoms: _260  and  _262
REMARK  107  A    between atoms: _262  and  _263
REMARK  108  A    between atoms: _265  and  _267
REMARK  109  A    between atoms: _267  and  _268
REMARK  110  A    between atoms: _267  and  _270
REMARK  111  A    between atoms: _270  and  _271
REMARK  112  A    between atoms: _271  and  _272
REMARK  113  A    between atoms: _272  and  _273
REMARK  114  A    between atoms: _282  and  _284
REMARK  115  A    between atoms: _284  and  _285
REMARK  116  A    between atoms: _284  and  _287
REMARK  117  A    between atoms: _287  and  _288
REMARK  118  A    between atoms: _293  and  _295
REMARK  119  A    between atoms: _295  and  _296
REMARK  120  A    between atoms: _295  and  _298
REMARK  121  A    between atoms: _298  and  _299
REMARK  122  A    between atoms: _299  and  _300
REMARK  123  A    between atoms: _300  and  _301
REMARK  124  A    between atoms: _310  and  _312
REMARK  125  A    between atoms: _312  and  _313
REMARK  126  A    between atoms: _312  and  _315
REMARK  127  A    between atoms: _315  and  _316
REMARK  128  A    between atoms: _319  and  _321
REMARK  129  A    between atoms: _321  and  _322
REMARK  130  A    between atoms: _321  and  _324
REMARK  131  A    between atoms: _324  and  _325
REMARK  132  A    between atoms: _328  and  _330
REMARK  133  A    between atoms: _330  and  _331
REMARK  134  A    between atoms: _330  and  _333
REMARK  135  A    between atoms: _333  and  _334
REMARK  136  A    between atoms: _337  and  _339
REMARK  137  A    between atoms: _339  and  _340
REMARK  138  A    between atoms: _339  and  _342
REMARK  139  A    between atoms: _342  and  _343
REMARK  140  A    between atoms: _346  and  _348
REMARK  141  A    between atoms: _348  and  _349
REMARK  142  A    between atoms: _351  and  _353
REMARK  143  A    between atoms: _353  and  _354
REMARK  144  A    between atoms: _357  and  _359
REMARK  145  A    between atoms: _359  and  _360
REMARK  146  A    between atoms: _359  and  _362
REMARK  147  A    between atoms: _362  and  _363
REMARK  148  A    between atoms: _366  and  _368
REMARK  149  A    between atoms: _368  and  _369
REMARK  150  A    between atoms: _368  and  _371
REMARK  151  A    between atoms: _371  and  _372
REMARK  152  A    between atoms: _375  and  _377
REMARK  153  A    between atoms: _377  and  _378
REMARK  154  A    between atoms: _377  and  _380
REMARK  155  A    between atoms: _380  and  _381
REMARK  156  A    between atoms: _384  and  _386
REMARK  157  A    between atoms: _386  and  _387
REMARK  158  A    between atoms: _386  and  _389
REMARK  159  A    between atoms: _392  and  _394
REMARK  160  A    between atoms: _394  and  _395
REMARK  161  A    between atoms: _394  and  _397
REMARK  162  A    between atoms: _397  and  _398
REMARK  163  A    between atoms: _401  and  _403
REMARK  164  A    between atoms: _403  and  _404
REMARK  165  A    between atoms: _403  and  _406
REMARK  166  A    between atoms: _406  and  _407
REMARK  167  A    between atoms: _407  and  _408
REMARK  168  A    between atoms: _410  and  _412
REMARK  169  A    between atoms: _412  and  _413
REMARK  170  A    between atoms: _412  and  _415
REMARK  171  A    between atoms: _415  and  _416
REMARK  172  A    between atoms: _419  and  _421
REMARK  173  A    between atoms: _421  and  _422
REMARK  174  A    between atoms: _424  and  _426
REMARK  175  A    between atoms: _426  and  _427
REMARK  176  A    between atoms: _429  and  _431
REMARK  177  A    between atoms: _431  and  _432
REMARK  178  A    between atoms: _431  and  _434
REMARK  179  A    between atoms: _434  and  _435
REMARK  180  A    between atoms: _438  and  _440
REMARK  181  A    between atoms: _440  and  _441
REMARK  182  A    between atoms: _443  and  _445
REMARK  183  A    between atoms: _445  and  _446
REMARK  184  A    between atoms: _448  and  _450
REMARK  185  A    between atoms: _450  and  _451
REMARK  186  A    between atoms: _450  and  _453
REMARK  187  A    between atoms: _453  and  _454
REMARK  188  A    between atoms: _460  and  _462
REMARK  189  A    between atoms: _462  and  _463
REMARK  190  A    between atoms: _462  and  _465
REMARK  191  A    between atoms: _465  and  _466
REMARK  192  A    between atoms: _469  and  _471
REMARK  193  A    between atoms: _471  and  _472
REMARK  194  A    between atoms: _471  and  _474
REMARK  195  A    between atoms: _477  and  _479
REMARK  196  A    between atoms: _479  and  _480
REMARK  197  A    between atoms: _479  and  _482
REMARK  198  A    between atoms: _482  and  _483
REMARK  199  A    between atoms: _487  and  _488
REMARK  200  A    between atoms: _493  and  _495
REMARK  201  A    between atoms: _495  and  _496
REMARK  202  A    between atoms: _495  and  _498
REMARK  203  A    between atoms: _498  and  _499
REMARK  204  A    between atoms: _505  and  _506
REMARK  205  A    between atoms: _511  and  _513
REMARK  206  A    between atoms: _513  and  _514
REMARK  207  A    between atoms: _513  and  _516
REMARK  208  A    between atoms: _519  and  _521
REMARK  209  A    between atoms: _521  and  _522
REMARK  210  A    between atoms: _521  and  _524
REMARK  211  A    between atoms: _524  and  _525
REMARK  212  A    between atoms: _530  and  _532
REMARK  213  A    between atoms: _532  and  _533
REMARK  214  A    between atoms: _532  and  _535
REMARK  215  A    between atoms: _535  and  _536
REMARK  216  A    between atoms: _539  and  _541
REMARK  217  A    between atoms: _541  and  _542
REMARK  218  A    between atoms: _541  and  _544
REMARK  219  A    between atoms: _544  and  _545
REMARK  220  A    between atoms: _548  and  _550
REMARK  221  A    between atoms: _550  and  _551
REMARK  222  A    between atoms: _553  and  _555
REMARK  223  A    between atoms: _555  and  _556
REMARK  224  A    between atoms: _555  and  _558
REMARK  225  A    between atoms: _558  and  _559
REMARK  226  A    between atoms: _559  and  _560
REMARK  227  A    between atoms: _560  and  _561
REMARK  228  A    between atoms: _570  and  _572
REMARK  229  A    between atoms: _572  and  _573
REMARK  230  A    between atoms: _572  and  _575
REMARK  231  A    between atoms: _575  and  _576
REMARK                            x       y       z     vdW  Elec       q    Type
REMARK                         _______ _______ _______ _____ _____    ______ ____
ROOT
ATOM      1  CA  LEU A   1       6.756  -5.860  14.723  0.00  0.00    +0.133 C 
ENDROOT
BRANCH   1   2
ATOM      2  N   LEU A   1       6.560  -5.101  13.500  0.00  0.00    -0.239 NA
ATOM      3  H   LEU A   1       7.251  -4.364  13.254  0.00  0.00    +0.142 HD
ENDBRANCH   1   2
BRANCH   1   4
ATOM      4  C   LEU A   1       6.505  -4.909  15.883  0.00  0.00    +0.224 C 
ATOM      5  O   LEU A   1       6.966  -3.768  15.847  0.00  0.00    -0.287 OA
ENDBRANCH   1   4
BRANCH   1   6
ATOM      6  CB  LEU A   1       8.190  -6.391  14.771  0.00  0.00    +0.025 C 
BRANCH   6   7
ATOM      7  CG  LEU A   1       8.620  -7.159  13.523  0.00  0.00    +0.002 C 
ATOM      8  CD2 LEU A   1      10.060  -7.622  13.647  0.00  0.00    +0.000 C 
ATOM      9  CD1 LEU A   1       7.693  -8.324  13.230  0.00  0.00    +0.000 C 
ENDBRANCH   6   7
ENDBRANCH   1   6
TORSDOF 4
REMARK  Name = ../refined-set-2016/2fgv/2fgv_pocket.pdb
REMARK  231 active torsions:
REMARK  status: ('A' for Active; 'I' for Inactive)
REMARK    1  A    between atoms: _1  and  _3
REMARK    2  A    between atoms: _3  and  _4
REMARK    3  A    between atoms: _3  and  _6
REMARK    4  A    between atoms: _6  and  _7
REMARK    5  A    between atoms: _7  and  _8
REMARK    6  A    between atoms: _8  and  _9
REMARK    7  A    between atoms: _18  and  _20
REMARK    8  A    between atoms: _20  and  _21
REMARK    9  A    between atoms: _20  and  _23
REMARK   10  A    between atoms: _23  and  _24
REMARK   11  A    between atoms: _27  and  _29
REMARK   12  A    between atoms: _29  and  _30
REMARK   13  A    between atoms: _29  and  _32
REMARK   14  A    between atoms: _32  and  _33
REMARK   15  A    between atoms: _36  and  _38
REMARK   16  A    between atoms: _38  and  _39
REMARK   17  A    between atoms: _38  and  _41
REMARK   18  A    between atoms: _41  and  _42
REMARK   19  A    between atoms: _45  and  _47
REMARK   20  A    between atoms: _47  and  _48
REMARK   21  A    between atoms: _47  and  _50
REMARK   22  A    between atoms: _50  and  _51
REMARK   23  A    between atoms: _54  and  _56
REMARK   24  A    between atoms: _56  and  _57
REMARK   25  A    between atoms: _59  and  _61
REMARK   26  A    between atoms: _61  and  _62
REMARK   27  A    between atoms: _65  and  _67
REMARK   28  A    between atoms: _67  and  _68
REMARK   29  A    between atoms: _67  and  _70
REMARK   30  A    between atoms: _70  and  _71
REMARK   31  A    between atoms: _74  and  _76
REMARK   32  A    between atoms: _76  and  _77
REMARK   33  A    between atoms: _76  and  _79
REMARK   34  A    between atoms: _79  and  _80
REMARK   35  A    between atoms: _83  and  _85
REMARK   36  A    between atoms: _85  and  _86
REMARK   37  A    between atoms: _85  and  _88
REMARK   38  A    between atoms: _88  and  _89
REMARK   39  A    between atoms: _92  and  _94
REMARK   40  A    between atoms: _94  and  _95
REMARK   41  A    between atoms: _94  and  _97
REMARK   42  A    between atoms: _100  and  _102
REMARK   43  A    between atoms: _102  and  _103
REMARK   44  A    between atoms: _102  and  _105
REMARK   45  A    between atoms: _105  and  _106
REMARK   46  A    between atoms: _106  and  _107
REMARK   47  A    between atoms: _107  and  _108
REMARK   48  A    between atoms: _108  and  _109
REMARK   49  A    between atoms: _113  and  _115
REMARK   50  A    between atoms: _115  and  _116
REMARK   51  A    between atoms: _115  and  _118
REMARK   52  A    between atoms: _118  and  _119
REMARK   53  A    between atoms: _119  and  _120
REMARK   54  A    between atoms: _122  and  _124
REMARK   55  A    between atoms: _124  and  _125
REMARK   56  A    between atoms: _124  and  _127
REMARK   57  A    between atoms: _127  and  _128
REMARK   58  A    between atoms: _131  and  _133
REMARK   59  A    between atoms: _133  and  _134
REMARK   60  A    between atoms: _136  and  _138
REMARK   61  A    between atoms: _138  and  _139
REMARK   62  A    between atoms: _141  and  _143
REMARK   63  A    between atoms: _143  and  _144
REMARK   64  A    between atoms: _143  and  _146
REMARK   65  A    between atoms: _146  and  _147
REMARK   66  A    between atoms: _150  and  _152
REMARK   67  A    between atoms: _152  and  _153
REMARK   68  A    between atoms: _155  and  _157
REMARK   69  A    between atoms: _157  and  _158
REMARK   70  A    between atoms: _160  and  _162
REMARK   71  A    between atoms: _162  and  _163
REMARK   72  A    between atoms: _162  and  _165
REMARK   73  A    between atoms: _165  and  _166
REMARK   74  A    between atoms: _172  and  _174
REMARK   75  A    between atoms: _174  and  _175
REMARK   76  A    between atoms: _174  and  _177
REMARK   77  A    between atoms: _177  and  _178
REMARK   78  A    between atoms: _181  and  _183
REMARK   79  A    between atoms: _183  and  _184
REMARK   80  A    between atoms: _183  and  _186
REMARK   81  A    between atoms: _189  and  _191
REMARK   82  A    between atoms: _191  and  _192
REMARK   83  A    between atoms: _191  and  _194
REMARK   84  A    between atoms: _194  and  _195
REMARK   85  A    between atoms: _199  and  _200
REMARK   86  A    between atoms: _205  and  _207
REMARK   87  A    between atoms: _207  and  _208
REMARK   88  A    between atoms: _207  and  _210
REMARK   89  A    between atoms: _210  and  _211
REMARK   90  A    between atoms: _217  and  _218
REMARK   91  A    between atoms: _223  and  _225
REMARK   92  A    between atoms: _225  and  _226
REMARK   93  A    between atoms: _225  and  _228
REMARK   94  A    between atoms: _231  and  _233
REMARK   95  A    between atoms: _233  and  _234
REMARK   96  A    between atoms: _233  and  _236
REMARK   97  A    between atoms: _236  and  _237
REMARK   98  A    between atoms: _242  and  _244
REMARK   99  A    between atoms: _244  and  _245
REMARK  100  A    between atoms: _244  and  _247
REMARK  101  A    between atoms: _247  and  _248
REMARK  102  A    between atoms: _251  and  _253
REMARK  103  A    between atoms: _253  and  _254
REMARK  104  A    between atoms: _253  and  _256
REMARK  105  A    between atoms: _256  and  _257
REMARK  106  A    between atoms: _260  and  _262
REMARK  107  A    between atoms: _262  and  _263
REMARK  108  A    between atoms: _265  and  _267
REMARK  109  A    between atoms: _267  and  _268
REMARK  110  A    between atoms: _267  and  _270
REMARK  111  A    between atoms: _270  and  _271
REMARK  112  A    between atoms: _271  and  _272
REMARK  113  A    between atoms: _272  and  _273
REMARK  114  A    between atoms: _282  and  _284
REMARK  115  A    between atoms: _284  and  _285
REMARK  116  A    between atoms: _284  and  _287
REMARK  117  A    between atoms: _287  and  _288
REMARK  118  A    between atoms: _293  and  _295
REMARK  119  A    between atoms: _295  and  _296
REMARK  120  A    between atoms: _295  and  _298
REMARK  121  A    between atoms: _298  and  _299
REMARK  122  A    between atoms: _299  and  _300
REMARK  123  A    between atoms: _300  and  _301
REMARK  124  A    between atoms: _310  and  _312
REMARK  125  A    between atoms: _312  and  _313
REMARK  126  A    between atoms: _312  and  _315
REMARK  127  A    between atoms: _315  and  _316
REMARK  128  A    between atoms: _319  and  _321
REMARK  129  A    between atoms: _321  and  _322
REMARK  130  A    between atoms: _321  and  _324
REMARK  131  A    between atoms: _324  and  _325
REMARK  132  A    between atoms: _328  and  _330
REMARK  133  A    between atoms: _330  and  _331
REMARK  134  A    between atoms: _330  and  _333
REMARK  135  A    between atoms: _333  and  _334
REMARK  136  A    between atoms: _337  and  _339
REMARK  137  A    between atoms: _339  and  _340
REMARK  138  A    between atoms: _339  and  _342
REMARK  139  A    between atoms: _342  and  _343
REMARK  140  A    between atoms: _346  and  _348
REMARK  141  A    between atoms: _348  and  _349
REMARK  142  A    between atoms: _351  and  _353
REMARK  143  A    between atoms: _353  and  _354
REMARK  144  A    between atoms: _357  and  _359
REMARK  145  A    between atoms: _359  and  _360
REMARK  146  A    between atoms: _359  and  _362
REMARK  147  A    between atoms: _362  and  _363
REMARK  148  A    between atoms: _366  and  _368
REMARK  149  A    between atoms: _368  and  _369
REMARK  150  A    between atoms: _368  and  _371
REMARK  151  A    between atoms: _371  and  _372
REMARK  152  A    between atoms: _375  and  _377
REMARK  153  A    between atoms: _377  and  _378
REMARK  154  A    between atoms: _377  and  _380
REMARK  155  A    between atoms: _380  and  _381
REMARK  156  A    between atoms: _384  and  _386
REMARK  157  A    between atoms: _386  and  _387
REMARK  158  A    between atoms: _386  and  _389
REMARK  159  A    between atoms: _392  and  _394
REMARK  160  A    between atoms: _394  and  _395
REMARK  161  A    between atoms: _394  and  _397
REMARK  162  A    between atoms: _397  and  _398
REMARK  163  A    between atoms: _401  and  _403
REMARK  164  A    between atoms: _403  and  _404
REMARK  165  A    between atoms: _403  and  _406
REMARK  166  A    between atoms: _406  and  _407
REMARK  167  A    between atoms: _407  and  _408
REMARK  168  A    between atoms: _410  and  _412
REMARK  169  A    between atoms: _412  and  _413
REMARK  170  A    between atoms: _412  and  _415
REMARK  171  A    between atoms: _415  and  _416
REMARK  172  A    between atoms: _419  and  _421
REMARK  173  A    between atoms: _421  and  _422
REMARK  174  A    between atoms: _424  and  _426
REMARK  175  A    between atoms: _426  and  _427
REMARK  176  A    between atoms: _429  and  _431
REMARK  177  A    between atoms: _431  and  _432
REMARK  178  A    between atoms: _431  and  _434
REMARK  179  A    between atoms: _434  and  _435
REMARK  180  A    between atoms: _438  and  _440
REMARK  181  A    between atoms: _440  and  _441
REMARK  182  A    between atoms: _443  and  _445
REMARK  183  A    between atoms: _445  and  _446
REMARK  184  A    between atoms: _448  and  _450
REMARK  185  A    between atoms: _450  and  _451
REMARK  186  A    between atoms: _450  and  _453
REMARK  187  A    between atoms: _453  and  _454
REMARK  188  A    between atoms: _460  and  _462
REMARK  189  A    between atoms: _462  and  _463
REMARK  190  A    between atoms: _462  and  _465
REMARK  191  A    between atoms: _465  and  _466
REMARK  192  A    between atoms: _469  and  _471
REMARK  193  A    between atoms: _471  and  _472
REMARK  194  A    between atoms: _471  and  _474
REMARK  195  A    between atoms: _477  and  _479
REMARK  196  A    between atoms: _479  and  _480
REMARK  197  A    between atoms: _479  and  _482
REMARK  198  A    between atoms: _482  and  _483
REMARK  199  A    between atoms: _487  and  _488
REMARK  200  A    between atoms: _493  and  _495
REMARK  201  A    between atoms: _495  and  _496
REMARK  202  A    between atoms: _495  and  _498
REMARK  203  A    between atoms: _498  and  _499
REMARK  204  A    between atoms: _505  and  _506
REMARK  205  A    between atoms: _511  and  _513
REMARK  206  A    between atoms: _513  and  _514
REMARK  207  A    between atoms: _513  and  _516
REMARK  208  A    between atoms: _519  and  _521
REMARK  209  A    between atoms: _521  and  _522
REMARK  210  A    between atoms: _521  and  _524
REMARK  211  A    between atoms: _524  and  _525
REMARK  212  A    between atoms: _530  and  _532
REMARK  213  A    between atoms: _532  and  _533
REMARK  214  A    between atoms: _532  and  _535
REMARK  215  A    between atoms: _535  and  _536
REMARK  216  A    between atoms: _539  and  _541
REMARK  217  A    between atoms: _541  and  _542
REMARK  218  A    between atoms: _541  and  _544
REMARK  219  A    between atoms: _544  and  _545
REMARK  220  A    between atoms: _548  and  _550
REMARK  221  A    between atoms: _550  and  _551
REMARK  222  A    between atoms: _553  and  _555
REMARK  223  A    between atoms: _555  and  _556
REMARK  224  A    between atoms: _555  and  _558
REMARK  225  A    between atoms: _558  and  _559
REMARK  226  A    between atoms: _559  and  _560
REMARK  227  A    between atoms: _560  and  _561
REMARK  228  A    between atoms: _570  and  _572
REMARK  229  A    between atoms: _572  and  _573
REMARK  230  A    between atoms: _572  and  _575
REMARK  231  A    between atoms: _575  and  _576
REMARK                            x       y       z     vdW  Elec       q    Type
REMARK                         _______ _______ _______ _____ _____    ______ ____
ROOT
ATOM      1  CA  ILE A   6      12.143   2.218  13.972  0.00  0.00    +0.149 C 
ENDROOT
BRANCH   1   2
ATOM      2  C   ILE A   6      11.589   1.712  12.651  0.00  0.00    +0.241 C 
ATOM      3  O   ILE A   6      10.878   0.703  12.629  0.00  0.00    -0.273 OA
ATOM      4  N   ILE A   7      11.900   2.438  11.575  0.00  0.00    -0.297 N 
ATOM      5  H   ILE A   7      12.438   3.319  11.705  0.00  0.00    +0.150 HD
BRANCH   4   6
ATOM      6  CA  ILE A   7      11.516   2.046  10.227  0.00  0.00    +0.149 C 
BRANCH   6   7
ATOM      7  C   ILE A   7      12.738   1.404   9.598  0.00  0.00    +0.241 C 
ATOM      8  O   ILE A   7      13.756   2.064   9.386  0.00  0.00    -0.273 OA
ATOM      9  N   GLY A   8      12.616   0.112   9.315  0.00  0.00    -0.295 N 
ATOM     10  H   GLY A   8      11.696  -0.350   9.464  0.00  0.00    +0.150 HD
BRANCH   9  11
ATOM     11  CA  GLY A   8      13.725  -0.681   8.803  0.00  0.00    +0.176 C 
BRANCH  11  12
ATOM     12  C   GLY A   8      13.644  -0.879   7.305  0.00  0.00    +0.243 C 
ATOM     13  N   ARG A   9      14.551  -1.688   6.766  0.00  0.00    -0.297 N 
ATOM     14  H   ARG A   9      15.139  -2.286   7.381  0.00  0.00    +0.150 HD
ATOM     15  O   GLY A   8      12.785  -0.300   6.640  0.00  0.00    -0.273 OA
BRANCH  13  16
ATOM     16  CA  ARG A   9      14.726  -1.743   5.327  0.00  0.00    +0.149 C 
BRANCH  16  17
ATOM     17  C   ARG A   9      13.506  -2.285   4.592  0.00  0.00    +0.241 C 
ATOM     18  N   ASN A  10      12.700  -3.104   5.255  0.00  0.00    -0.298 N 
ATOM     19  H   ASN A  10      12.908  -3.358   6.242  0.00  0.00    +0.150 HD
ATOM     20  O   ARG A   9      13.297  -1.960   3.422  0.00  0.00    -0.273 OA
BRANCH  18  21
ATOM     21  CA  ASN A  10      11.522  -3.644   4.590  0.00  0.00    +0.146 C 
BRANCH  21  22
ATOM     22  C   ASN A  10      10.591  -2.555   4.068  0.00  0.00    +0.227 C 
ATOM     23  O   ASN A  10       9.946  -2.749   3.030  0.00  0.00    -0.286 OA
ENDBRANCH  21  22
BRANCH  21  24
ATOM     24  CB  ASN A  10      10.766  -4.633   5.482  0.00  0.00    +0.112 C 
BRANCH  24  25
ATOM     25  CG  ASN A  10      10.079  -3.970   6.653  0.00  0.00    +0.222 C 
ATOM     26  OD1 ASN A  10      10.683  -3.162   7.350  0.00  0.00    -0.275 OA
ATOM     27  ND2 ASN A  10       8.801  -4.304   6.864  0.00  0.00    -0.329 N 
ATOM     28 HD21 ASN A  10       8.273  -3.872   7.649  0.00  0.00    +0.145 HD
ATOM     29 HD22 ASN A  10       8.335  -4.996   6.243  0.00  0.00    +0.145 HD
ENDBRANCH  24  25
ENDBRANCH  21  24
ENDBRANCH  18  21
ENDBRANCH  16  17
BRANCH  16  30
ATOM     30  CB  ARG A   9      15.965  -2.561   4.960  0.00  0.00    +0.033 C 
BRANCH  30  31
ATOM     31  CG  ARG A   9      17.261  -1.916   5.424  0.00  0.00    +0.045 C 
BRANCH  31  32
ATOM     32  CD  ARG A   9      18.513  -2.644   4.936  0.00  0.00    +0.174 C 
BRANCH  32  33
ATOM     33  NE  ARG A   9      18.589  -3.998   5.477  0.00  0.00    -0.265 N 
ATOM     34  HE  ARG A   9      18.956  -4.103   6.444  0.00  0.00    +0.259 HD
ATOM     35  CZ  ARG A   9      18.229  -5.112   4.839  0.00  0.00    +0.342 C 
ATOM     36  NH2 ARG A   9      18.338  -6.282   5.454  0.00  0.00    -0.292 N 
ATOM     37 HH21 ARG A   9      18.702  -6.326   6.427  0.00  0.00    +0.255 HD
ATOM     38 HH22 ARG A   9      18.059  -7.155   4.963  0.00  0.00    +0.255 HD
ATOM     39  NH1 ARG A   9      17.747  -5.089   3.605  0.00  0.00    -0.292 N 
ATOM     40 HH11 ARG A   9      17.476  -5.977   3.136  0.00  0.00    +0.255 HD
ATOM     41 HH12 ARG A   9      17.640  -4.183   3.105  0.00  0.00    +0.255 HD
ENDBRANCH  32  33
ENDBRANCH  31  32
ENDBRANCH  30  31
ENDBRANCH  16  30
ENDBRANCH  13  16
ENDBRANCH  11  12
ENDBRANCH   9  11
ENDBRANCH   6   7
BRANCH   6  42
ATOM     42  CB  ILE A   7      11.098   3.251   9.360  0.00  0.00    +0.027 C 
ATOM     43  CG2 ILE A   7      10.683   2.804   7.955  0.00  0.00    +0.002 C 
BRANCH  42  44
ATOM     44  CG1 ILE A   7       9.972   4.053  10.019  0.00  0.00    +0.002 C 
ATOM     45  CD1 ILE A   7       8.772   3.219  10.430  0.00  0.00    +0.000 C 
ENDBRANCH  42  44
ENDBRANCH   6  42
ENDBRANCH   4   6
ENDBRANCH   1   2
BRANCH   1  48
ATOM     46  C   ASN A   5      10.773   3.363  15.627  0.00  0.00    +0.241 C 
ATOM     47  O   ASN A   5      11.341   4.438  15.434  0.00  0.00    -0.273 OA
ATOM     48  N   ILE A   6      11.094   2.240  14.989  0.00  0.00    -0.297 N 
ATOM     49  H   ILE A   6      10.588   1.361  15.219  0.00  0.00    +0.150 HD
BRANCH  46  50
ATOM     50  CA  ASN A   5       9.625   3.301  16.625  0.00  0.00    +0.158 C 
BRANCH  50  53
ATOM     51  C   VAL A   4      10.865   3.455  18.705  0.00  0.00    +0.241 C 
ATOM     52  O   VAL A   4      11.196   2.271  18.667  0.00  0.00    -0.273 OA
ATOM     53  N   ASN A   5      10.035   4.003  17.824  0.00  0.00    -0.297 N 
ATOM     54  H   ASN A   5       9.670   4.961  18.000  0.00  0.00    +0.150 HD
BRANCH  51  55
ATOM     55  CA  VAL A   4      11.381   4.375  19.805  0.00  0.00    +0.149 C 
BRANCH  55  58
ATOM     56  C   PRO A   3      11.121   4.056  22.214  0.00  0.00    +0.241 C 
ATOM     57  O   PRO A   3      10.530   5.125  22.367  0.00  0.00    -0.273 OA
ATOM     58  N   VAL A   4      11.526   3.599  21.032  0.00  0.00    -0.297 N 
ATOM     59  H   VAL A   4      11.961   2.656  20.981  0.00  0.00    +0.150 HD
BRANCH  56  62
ATOM     60  C   ASN A   2      10.854   0.895  22.821  0.00  0.00    +0.244 C 
ATOM     61  N   PRO A   3      11.788   1.806  23.134  0.00  0.00    -0.272 N 
ATOM     62  CA  PRO A   3      11.437   3.194  23.427  0.00  0.00    +0.152 C 
ATOM     63  CB  PRO A   3      12.691   3.739  24.112  0.00  0.00    +0.031 C 
ATOM     64  CG  PRO A   3      13.800   2.890  23.617  0.00  0.00    +0.024 C 
ATOM     65  CD  PRO A   3      13.235   1.554  23.261  0.00  0.00    +0.094 C 
ATOM     66  O   ASN A   2       9.663   1.185  22.722  0.00  0.00    -0.273 OA
BRANCH  60  67
ATOM     67  CA  ASN A   2      11.325  -0.543  22.600  0.00  0.00    +0.158 C 
BRANCH  67  70
ATOM     68  C   PRO A   1       9.872  -1.782  24.130  0.00  0.00    +0.239 C 
ATOM     69  O   PRO A   1      10.266  -1.163  25.121  0.00  0.00    -0.274 OA
ATOM     70  N   ASN A   2      10.282  -1.519  22.892  0.00  0.00    -0.297 N 
ATOM     71  H   ASN A   2       9.841  -2.030  22.101  0.00  0.00    +0.150 HD
BRANCH  68  73
ATOM     72  N   PRO A   1       8.725  -3.748  23.107  0.00  0.00    -0.210 NA
ATOM     73  CA  PRO A   1       8.847  -2.906  24.289  0.00  0.00    +0.149 C 
ATOM     74  CB  PRO A   1       9.336  -3.902  25.337  0.00  0.00    +0.028 C 
ATOM     75  CG  PRO A   1      10.248  -4.802  24.549  0.00  0.00    +0.021 C 
ATOM     76  CD  PRO A   1       9.714  -4.840  23.133  0.00  0.00    +0.089 C 
ENDBRANCH  68  73
ENDBRANCH  67  70
BRANCH  67  77
ATOM     77  CB  ASN A   2      11.846  -0.723  21.164  0.00  0.00    +0.114 C 
BRANCH  77  78
ATOM     78  CG  ASN A   2      10.744  -1.070  20.162  0.00  0.00    +0.222 C 
ATOM     79  OD1 ASN A   2       9.968  -2.011  20.369  0.00  0.00    -0.275 OA
ATOM     80  ND2 ASN A   2      10.679  -0.318  19.057  0.00  0.00    -0.329 N 
ATOM     81 HD21 ASN A   2      11.350   0.465  18.920  0.00  0.00    +0.145 HD
ATOM     82 HD22 ASN A   2       9.957  -0.516  18.335  0.00  0.00    +0.145 HD
ENDBRANCH  77  78
ENDBRANCH  67  77
ENDBRANCH  60  67
ENDBRANCH  56  62
ENDBRANCH  55  58
BRANCH  55  83
ATOM     83  CB  VAL A   4      12.724   5.025  19.392  0.00  0.00    +0.027 C 
ATOM     84  CG2 VAL A   4      13.766   3.977  19.060  0.00  0.00    +0.002 C 
ATOM     85  CG1 VAL A   4      12.560   5.997  18.221  0.00  0.00    +0.002 C 
ENDBRANCH  55  83
ENDBRANCH  51  55
ENDBRANCH  50  53
BRANCH  50  86
ATOM     86  CB  ASN A   5       8.424   4.000  15.991  0.00  0.00    +0.114 C 
BRANCH  86  87
ATOM     87  CG  ASN A   5       7.208   4.037  16.892  0.00  0.00    +0.222 C 
ATOM     88  OD1 ASN A   5       6.757   3.007  17.387  0.00  0.00    -0.275 OA
ATOM     89  ND2 ASN A   5       6.665   5.234  17.097  0.00  0.00    -0.329 N 
ATOM     90 HD21 ASN A   5       5.822   5.326  17.699  0.00  0.00    +0.145 HD
ATOM     91 HD22 ASN A   5       7.084   6.077  16.656  0.00  0.00    +0.145 HD
ENDBRANCH  86  87
ENDBRANCH  50  86
ENDBRANCH  46  50
ENDBRANCH   1  48
BRANCH   1  92
ATOM     92  CB  ILE A   6      13.385   1.423  14.421  0.00  0.00    +0.027 C 
ATOM     93  CG2 ILE A   6      13.881   1.934  15.765  0.00  0.00    +0.002 C 
BRANCH  92  94
ATOM     94  CG1 ILE A   6      13.118  -0.078  14.495  0.00  0.00    +0.002 C 
ATOM     95  CD1 ILE A   6      14.312  -0.877  14.993  0.00  0.00    +0.000 C 
ENDBRANCH  92  94
ENDBRANCH   1  92
TORSDOF 33
REMARK  Name = ../refined-set-2016/2fgv/2fgv_pocket.pdb
REMARK  231 active torsions:
REMARK  status: ('A' for Active; 'I' for Inactive)
REMARK    1  A    between atoms: _1  and  _3
REMARK    2  A    between atoms: _3  and  _4
REMARK    3  A    between atoms: _3  and  _6
REMARK    4  A    between atoms: _6  and  _7
REMARK    5  A    between atoms: _7  and  _8
REMARK    6  A    between atoms: _8  and  _9
REMARK    7  A    between atoms: _18  and  _20
REMARK    8  A    between atoms: _20  and  _21
REMARK    9  A    between atoms: _20  and  _23
REMARK   10  A    between atoms: _23  and  _24
REMARK   11  A    between atoms: _27  and  _29
REMARK   12  A    between atoms: _29  and  _30
REMARK   13  A    between atoms: _29  and  _32
REMARK   14  A    between atoms: _32  and  _33
REMARK   15  A    between atoms: _36  and  _38
REMARK   16  A    between atoms: _38  and  _39
REMARK   17  A    between atoms: _38  and  _41
REMARK   18  A    between atoms: _41  and  _42
REMARK   19  A    between atoms: _45  and  _47
REMARK   20  A    between atoms: _47  and  _48
REMARK   21  A    between atoms: _47  and  _50
REMARK   22  A    between atoms: _50  and  _51
REMARK   23  A    between atoms: _54  and  _56
REMARK   24  A    between atoms: _56  and  _57
REMARK   25  A    between atoms: _59  and  _61
REMARK   26  A    between atoms: _61  and  _62
REMARK   27  A    between atoms: _65  and  _67
REMARK   28  A    between atoms: _67  and  _68
REMARK   29  A    between atoms: _67  and  _70
REMARK   30  A    between atoms: _70  and  _71
REMARK   31  A    between atoms: _74  and  _76
REMARK   32  A    between atoms: _76  and  _77
REMARK   33  A    between atoms: _76  and  _79
REMARK   34  A    between atoms: _79  and  _80
REMARK   35  A    between atoms: _83  and  _85
REMARK   36  A    between atoms: _85  and  _86
REMARK   37  A    between atoms: _85  and  _88
REMARK   38  A    between atoms: _88  and  _89
REMARK   39  A    between atoms: _92  and  _94
REMARK   40  A    between atoms: _94  and  _95
REMARK   41  A    between atoms: _94  and  _97
REMARK   42  A    between atoms: _100  and  _102
REMARK   43  A    between atoms: _102  and  _103
REMARK   44  A    between atoms: _102  and  _105
REMARK   45  A    between atoms: _105  and  _106
REMARK   46  A    between atoms: _106  and  _107
REMARK   47  A    between atoms: _107  and  _108
REMARK   48  A    between atoms: _108  and  _109
REMARK   49  A    between atoms: _113  and  _115
REMARK   50  A    between atoms: _115  and  _116
REMARK   51  A    between atoms: _115  and  _118
REMARK   52  A    between atoms: _118  and  _119
REMARK   53  A    between atoms: _119  and  _120
REMARK   54  A    between atoms: _122  and  _124
REMARK   55  A    between atoms: _124  and  _125
REMARK   56  A    between atoms: _124  and  _127
REMARK   57  A    between atoms: _127  and  _128
REMARK   58  A    between atoms: _131  and  _133
REMARK   59  A    between atoms: _133  and  _134
REMARK   60  A    between atoms: _136  and  _138
REMARK   61  A    between atoms: _138  and  _139
REMARK   62  A    between atoms: _141  and  _143
REMARK   63  A    between atoms: _143  and  _144
REMARK   64  A    between atoms: _143  and  _146
REMARK   65  A    between atoms: _146  and  _147
REMARK   66  A    between atoms: _150  and  _152
REMARK   67  A    between atoms: _152  and  _153
REMARK   68  A    between atoms: _155  and  _157
REMARK   69  A    between atoms: _157  and  _158
REMARK   70  A    between atoms: _160  and  _162
REMARK   71  A    between atoms: _162  and  _163
REMARK   72  A    between atoms: _162  and  _165
REMARK   73  A    between atoms: _165  and  _166
REMARK   74  A    between atoms: _172  and  _174
REMARK   75  A    between atoms: _174  and  _175
REMARK   76  A    between atoms: _174  and  _177
REMARK   77  A    between atoms: _177  and  _178
REMARK   78  A    between atoms: _181  and  _183
REMARK   79  A    between atoms: _183  and  _184
REMARK   80  A    between atoms: _183  and  _186
REMARK   81  A    between atoms: _189  and  _191
REMARK   82  A    between atoms: _191  and  _192
REMARK   83  A    between atoms: _191  and  _194
REMARK   84  A    between atoms: _194  and  _195
REMARK   85  A    between atoms: _199  and  _200
REMARK   86  A    between atoms: _205  and  _207
REMARK   87  A    between atoms: _207  and  _208
REMARK   88  A    between atoms: _207  and  _210
REMARK   89  A    between atoms: _210  and  _211
REMARK   90  A    between atoms: _217  and  _218
REMARK   91  A    between atoms: _223  and  _225
REMARK   92  A    between atoms: _225  and  _226
REMARK   93  A    between atoms: _225  and  _228
REMARK   94  A    between atoms: _231  and  _233
REMARK   95  A    between atoms: _233  and  _234
REMARK   96  A    between atoms: _233  and  _236
REMARK   97  A    between atoms: _236  and  _237
REMARK   98  A    between atoms: _242  and  _244
REMARK   99  A    between atoms: _244  and  _245
REMARK  100  A    between atoms: _244  and  _247
REMARK  101  A    between atoms: _247  and  _248
REMARK  102  A    between atoms: _251  and  _253
REMARK  103  A    between atoms: _253  and  _254
REMARK  104  A    between atoms: _253  and  _256
REMARK  105  A    between atoms: _256  and  _257
REMARK  106  A    between atoms: _260  and  _262
REMARK  107  A    between atoms: _262  and  _263
REMARK  108  A    between atoms: _265  and  _267
REMARK  109  A    between atoms: _267  and  _268
REMARK  110  A    between atoms: _267  and  _270
REMARK  111  A    between atoms: _270  and  _271
REMARK  112  A    between atoms: _271  and  _272
REMARK  113  A    between atoms: _272  and  _273
REMARK  114  A    between atoms: _282  and  _284
REMARK  115  A    between atoms: _284  and  _285
REMARK  116  A    between atoms: _284  and  _287
REMARK  117  A    between atoms: _287  and  _288
REMARK  118  A    between atoms: _293  and  _295
REMARK  119  A    between atoms: _295  and  _296
REMARK  120  A    between atoms: _295  and  _298
REMARK  121  A    between atoms: _298  and  _299
REMARK  122  A    between atoms: _299  and  _300
REMARK  123  A    between atoms: _300  and  _301
REMARK  124  A    between atoms: _310  and  _312
REMARK  125  A    between atoms: _312  and  _313
REMARK  126  A    between atoms: _312  and  _315
REMARK  127  A    between atoms: _315  and  _316
REMARK  128  A    between atoms: _319  and  _321
REMARK  129  A    between atoms: _321  and  _322
REMARK  130  A    between atoms: _321  and  _324
REMARK  131  A    between atoms: _324  and  _325
REMARK  132  A    between atoms: _328  and  _330
REMARK  133  A    between atoms: _330  and  _331
REMARK  134  A    between atoms: _330  and  _333
REMARK  135  A    between atoms: _333  and  _334
REMARK  136  A    between atoms: _337  and  _339
REMARK  137  A    between atoms: _339  and  _340
REMARK  138  A    between atoms: _339  and  _342
REMARK  139  A    between atoms: _342  and  _343
REMARK  140  A    between atoms: _346  and  _348
REMARK  141  A    between atoms: _348  and  _349
REMARK  142  A    between atoms: _351  and  _353
REMARK  143  A    between atoms: _353  and  _354
REMARK  144  A    between atoms: _357  and  _359
REMARK  145  A    between atoms: _359  and  _360
REMARK  146  A    between atoms: _359  and  _362
REMARK  147  A    between atoms: _362  and  _363
REMARK  148  A    between atoms: _366  and  _368
REMARK  149  A    between atoms: _368  and  _369
REMARK  150  A    between atoms: _368  and  _371
REMARK  151  A    between atoms: _371  and  _372
REMARK  152  A    between atoms: _375  and  _377
REMARK  153  A    between atoms: _377  and  _378
REMARK  154  A    between atoms: _377  and  _380
REMARK  155  A    between atoms: _380  and  _381
REMARK  156  A    between atoms: _384  and  _386
REMARK  157  A    between atoms: _386  and  _387
REMARK  158  A    between atoms: _386  and  _389
REMARK  159  A    between atoms: _392  and  _394
REMARK  160  A    between atoms: _394  and  _395
REMARK  161  A    between atoms: _394  and  _397
REMARK  162  A    between atoms: _397  and  _398
REMARK  163  A    between atoms: _401  and  _403
REMARK  164  A    between atoms: _403  and  _404
REMARK  165  A    between atoms: _403  and  _406
REMARK  166  A    between atoms: _406  and  _407
REMARK  167  A    between atoms: _407  and  _408
REMARK  168  A    between atoms: _410  and  _412
REMARK  169  A    between atoms: _412  and  _413
REMARK  170  A    between atoms: _412  and  _415
REMARK  171  A    between atoms: _415  and  _416
REMARK  172  A    between atoms: _419  and  _421
REMARK  173  A    between atoms: _421  and  _422
REMARK  174  A    between atoms: _424  and  _426
REMARK  175  A    between atoms: _426  and  _427
REMARK  176  A    between atoms: _429  and  _431
REMARK  177  A    between atoms: _431  and  _432
REMARK  178  A    between atoms: _431  and  _434
REMARK  179  A    between atoms: _434  and  _435
REMARK  180  A    between atoms: _438  and  _440
REMARK  181  A    between atoms: _440  and  _441
REMARK  182  A    between atoms: _443  and  _445
REMARK  183  A    between atoms: _445  and  _446
REMARK  184  A    between atoms: _448  and  _450
REMARK  185  A    between atoms: _450  and  _451
REMARK  186  A    between atoms: _450  and  _453
REMARK  187  A    between atoms: _453  and  _454
REMARK  188  A    between atoms: _460  and  _462
REMARK  189  A    between atoms: _462  and  _463
REMARK  190  A    between atoms: _462  and  _465
REMARK  191  A    between atoms: _465  and  _466
REMARK  192  A    between atoms: _469  and  _471
REMARK  193  A    between atoms: _471  and  _472
REMARK  194  A    between atoms: _471  and  _474
REMARK  195  A    between atoms: _477  and  _479
REMARK  196  A    between atoms: _479  and  _480
REMARK  197  A    between atoms: _479  and  _482
REMARK  198  A    between atoms: _482  and  _483
REMARK  199  A    between atoms: _487  and  _488
REMARK  200  A    between atoms: _493  and  _495
REMARK  201  A    between atoms: _495  and  _496
REMARK  202  A    between atoms: _495  and  _498
REMARK  203  A    between atoms: _498  and  _499
REMARK  204  A    between atoms: _505  and  _506
REMARK  205  A    between atoms: _511  and  _513
REMARK  206  A    between atoms: _513  and  _514
REMARK  207  A    between atoms: _513  and  _516
REMARK  208  A    between atoms: _519  and  _521
REMARK  209  A    between atoms: _521  and  _522
REMARK  210  A    between atoms: _521  and  _524
REMARK  211  A    between atoms: _524  and  _525
REMARK  212  A    between atoms: _530  and  _532
REMARK  213  A    between atoms: _532  and  _533
REMARK  214  A    between atoms: _532  and  _535
REMARK  215  A    between atoms: _535  and  _536
REMARK  216  A    between atoms: _539  and  _541
REMARK  217  A    between atoms: _541  and  _542
REMARK  218  A    between atoms: _541  and  _544
REMARK  219  A    between atoms: _544  and  _545
REMARK  220  A    between atoms: _548  and  _550
REMARK  221  A    between atoms: _550  and  _551
REMARK  222  A    between atoms: _553  and  _555
REMARK  223  A    between atoms: _555  and  _556
REMARK  224  A    between atoms: _555  and  _558
REMARK  225  A    between atoms: _558  and  _559
REMARK  226  A    between atoms: _559  and  _560
REMARK  227  A    between atoms: _560  and  _561
REMARK  228  A    between atoms: _570  and  _572
REMARK  229  A    between atoms: _572  and  _573
REMARK  230  A    between atoms: _572  and  _575
REMARK  231  A    between atoms: _575  and  _576
REMARK                            x       y       z     vdW  Elec       q    Type
REMARK                         _______ _______ _______ _____ _____    ______ ____
ROOT
ATOM      1  NE  ARG A   1      21.333  -7.963   7.863  0.00  0.00    -0.265 N 
ATOM      2  CZ  ARG A   1      21.540  -9.182   8.351  0.00  0.00    +0.342 C 
ATOM      3  NH2 ARG A   1      20.539  -9.832   8.925  0.00  0.00    -0.292 N 
ATOM      4 HH21 ARG A   1      20.691 -10.786   9.310  0.00  0.00    +0.255 HD
ATOM      5 HH22 ARG A   1      19.601  -9.388   8.991  0.00  0.00    +0.255 HD
ATOM      6  NH1 ARG A   1      22.728  -9.769   8.266  0.00  0.00    -0.292 N 
ATOM      7 HH11 ARG A   1      22.865 -10.724   8.655  0.00  0.00    +0.255 HD
ATOM      8 HH12 ARG A   1      23.521  -9.274   7.810  0.00  0.00    +0.255 HD
ATOM      9  HE  ARG A   1      20.378  -7.564   7.960  0.00  0.00    +0.259 HD
ENDROOT
BRANCH   1  10
ATOM     10  CD  ARG A   1      22.342  -7.140   7.201  0.00  0.00    +0.174 C 
BRANCH  10  11
ATOM     11  CG  ARG A   1      21.700  -6.357   6.081  0.00  0.00    +0.045 C 
BRANCH  11  12
ATOM     12  CB  ARG A   1      22.720  -5.579   5.275  0.00  0.00    +0.029 C 
BRANCH  12  13
ATOM     13  CA  ARG A   1      22.098  -4.661   4.223  0.00  0.00    +0.133 C 
BRANCH  13  14
ATOM     14  N   ARG A   1      21.476  -5.434   3.151  0.00  0.00    -0.239 NA
ATOM     15  H   ARG A   1      21.479  -6.473   3.195  0.00  0.00    +0.142 HD
ENDBRANCH  13  14
BRANCH  13  16
ATOM     16  C   ARG A   1      23.183  -3.774   3.636  0.00  0.00    +0.224 C 
ATOM     17  O   ARG A   1      23.987  -4.247   2.825  0.00  0.00    -0.287 OA
ENDBRANCH  13  16
ENDBRANCH  12  13
ENDBRANCH  11  12
ENDBRANCH  10  11
ENDBRANCH   1  10
TORSDOF 6
REMARK  Name = ../refined-set-2016/2fgv/2fgv_pocket.pdb
REMARK  231 active torsions:
REMARK  status: ('A' for Active; 'I' for Inactive)
REMARK    1  A    between atoms: _1  and  _3
REMARK    2  A    between atoms: _3  and  _4
REMARK    3  A    between atoms: _3  and  _6
REMARK    4  A    between atoms: _6  and  _7
REMARK    5  A    between atoms: _7  and  _8
REMARK    6  A    between atoms: _8  and  _9
REMARK    7  A    between atoms: _18  and  _20
REMARK    8  A    between atoms: _20  and  _21
REMARK    9  A    between atoms: _20  and  _23
REMARK   10  A    between atoms: _23  and  _24
REMARK   11  A    between atoms: _27  and  _29
REMARK   12  A    between atoms: _29  and  _30
REMARK   13  A    between atoms: _29  and  _32
REMARK   14  A    between atoms: _32  and  _33
REMARK   15  A    between atoms: _36  and  _38
REMARK   16  A    between atoms: _38  and  _39
REMARK   17  A    between atoms: _38  and  _41
REMARK   18  A    between atoms: _41  and  _42
REMARK   19  A    between atoms: _45  and  _47
REMARK   20  A    between atoms: _47  and  _48
REMARK   21  A    between atoms: _47  and  _50
REMARK   22  A    between atoms: _50  and  _51
REMARK   23  A    between atoms: _54  and  _56
REMARK   24  A    between atoms: _56  and  _57
REMARK   25  A    between atoms: _59  and  _61
REMARK   26  A    between atoms: _61  and  _62
REMARK   27  A    between atoms: _65  and  _67
REMARK   28  A    between atoms: _67  and  _68
REMARK   29  A    between atoms: _67  and  _70
REMARK   30  A    between atoms: _70  and  _71
REMARK   31  A    between atoms: _74  and  _76
REMARK   32  A    between atoms: _76  and  _77
REMARK   33  A    between atoms: _76  and  _79
REMARK   34  A    between atoms: _79  and  _80
REMARK   35  A    between atoms: _83  and  _85
REMARK   36  A    between atoms: _85  and  _86
REMARK   37  A    between atoms: _85  and  _88
REMARK   38  A    between atoms: _88  and  _89
REMARK   39  A    between atoms: _92  and  _94
REMARK   40  A    between atoms: _94  and  _95
REMARK   41  A    between atoms: _94  and  _97
REMARK   42  A    between atoms: _100  and  _102
REMARK   43  A    between atoms: _102  and  _103
REMARK   44  A    between atoms: _102  and  _105
REMARK   45  A    between atoms: _105  and  _106
REMARK   46  A    between atoms: _106  and  _107
REMARK   47  A    between atoms: _107  and  _108
REMARK   48  A    between atoms: _108  and  _109
REMARK   49  A    between atoms: _113  and  _115
REMARK   50  A    between atoms: _115  and  _116
REMARK   51  A    between atoms: _115  and  _118
REMARK   52  A    between atoms: _118  and  _119
REMARK   53  A    between atoms: _119  and  _120
REMARK   54  A    between atoms: _122  and  _124
REMARK   55  A    between atoms: _124  and  _125
REMARK   56  A    between atoms: _124  and  _127
REMARK   57  A    between atoms: _127  and  _128
REMARK   58  A    between atoms: _131  and  _133
REMARK   59  A    between atoms: _133  and  _134
REMARK   60  A    between atoms: _136  and  _138
REMARK   61  A    between atoms: _138  and  _139
REMARK   62  A    between atoms: _141  and  _143
REMARK   63  A    between atoms: _143  and  _144
REMARK   64  A    between atoms: _143  and  _146
REMARK   65  A    between atoms: _146  and  _147
REMARK   66  A    between atoms: _150  and  _152
REMARK   67  A    between atoms: _152  and  _153
REMARK   68  A    between atoms: _155  and  _157
REMARK   69  A    between atoms: _157  and  _158
REMARK   70  A    between atoms: _160  and  _162
REMARK   71  A    between atoms: _162  and  _163
REMARK   72  A    between atoms: _162  and  _165
REMARK   73  A    between atoms: _165  and  _166
REMARK   74  A    between atoms: _172  and  _174
REMARK   75  A    between atoms: _174  and  _175
REMARK   76  A    between atoms: _174  and  _177
REMARK   77  A    between atoms: _177  and  _178
REMARK   78  A    between atoms: _181  and  _183
REMARK   79  A    between atoms: _183  and  _184
REMARK   80  A    between atoms: _183  and  _186
REMARK   81  A    between atoms: _189  and  _191
REMARK   82  A    between atoms: _191  and  _192
REMARK   83  A    between atoms: _191  and  _194
REMARK   84  A    between atoms: _194  and  _195
REMARK   85  A    between atoms: _199  and  _200
REMARK   86  A    between atoms: _205  and  _207
REMARK   87  A    between atoms: _207  and  _208
REMARK   88  A    between atoms: _207  and  _210
REMARK   89  A    between atoms: _210  and  _211
REMARK   90  A    between atoms: _217  and  _218
REMARK   91  A    between atoms: _223  and  _225
REMARK   92  A    between atoms: _225  and  _226
REMARK   93  A    between atoms: _225  and  _228
REMARK   94  A    between atoms: _231  and  _233
REMARK   95  A    between atoms: _233  and  _234
REMARK   96  A    between atoms: _233  and  _236
REMARK   97  A    between atoms: _236  and  _237
REMARK   98  A    between atoms: _242  and  _244
REMARK   99  A    between atoms: _244  and  _245
REMARK  100  A    between atoms: _244  and  _247
REMARK  101  A    between atoms: _247  and  _248
REMARK  102  A    between atoms: _251  and  _253
REMARK  103  A    between atoms: _253  and  _254
REMARK  104  A    between atoms: _253  and  _256
REMARK  105  A    between atoms: _256  and  _257
REMARK  106  A    between atoms: _260  and  _262
REMARK  107  A    between atoms: _262  and  _263
REMARK  108  A    between atoms: _265  and  _267
REMARK  109  A    between atoms: _267  and  _268
REMARK  110  A    between atoms: _267  and  _270
REMARK  111  A    between atoms: _270  and  _271
REMARK  112  A    between atoms: _271  and  _272
REMARK  113  A    between atoms: _272  and  _273
REMARK  114  A    between atoms: _282  and  _284
REMARK  115  A    between atoms: _284  and  _285
REMARK  116  A    between atoms: _284  and  _287
REMARK  117  A    between atoms: _287  and  _288
REMARK  118  A    between atoms: _293  and  _295
REMARK  119  A    between atoms: _295  and  _296
REMARK  120  A    between atoms: _295  and  _298
REMARK  121  A    between atoms: _298  and  _299
REMARK  122  A    between atoms: _299  and  _300
REMARK  123  A    between atoms: _300  and  _301
REMARK  124  A    between atoms: _310  and  _312
REMARK  125  A    between atoms: _312  and  _313
REMARK  126  A    between atoms: _312  and  _315
REMARK  127  A    between atoms: _315  and  _316
REMARK  128  A    between atoms: _319  and  _321
REMARK  129  A    between atoms: _321  and  _322
REMARK  130  A    between atoms: _321  and  _324
REMARK  131  A    between atoms: _324  and  _325
REMARK  132  A    between atoms: _328  and  _330
REMARK  133  A    between atoms: _330  and  _331
REMARK  134  A    between atoms: _330  and  _333
REMARK  135  A    between atoms: _333  and  _334
REMARK  136  A    between atoms: _337  and  _339
REMARK  137  A    between atoms: _339  and  _340
REMARK  138  A    between atoms: _339  and  _342
REMARK  139  A    between atoms: _342  and  _343
REMARK  140  A    between atoms: _346  and  _348
REMARK  141  A    between atoms: _348  and  _349
REMARK  142  A    between atoms: _351  and  _353
REMARK  143  A    between atoms: _353  and  _354
REMARK  144  A    between atoms: _357  and  _359
REMARK  145  A    between atoms: _359  and  _360
REMARK  146  A    between atoms: _359  and  _362
REMARK  147  A    between atoms: _362  and  _363
REMARK  148  A    between atoms: _366  and  _368
REMARK  149  A    between atoms: _368  and  _369
REMARK  150  A    between atoms: _368  and  _371
REMARK  151  A    between atoms: _371  and  _372
REMARK  152  A    between atoms: _375  and  _377
REMARK  153  A    between atoms: _377  and  _378
REMARK  154  A    between atoms: _377  and  _380
REMARK  155  A    between atoms: _380  and  _381
REMARK  156  A    between atoms: _384  and  _386
REMARK  157  A    between atoms: _386  and  _387
REMARK  158  A    between atoms: _386  and  _389
REMARK  159  A    between atoms: _392  and  _394
REMARK  160  A    between atoms: _394  and  _395
REMARK  161  A    between atoms: _394  and  _397
REMARK  162  A    between atoms: _397  and  _398
REMARK  163  A    between atoms: _401  and  _403
REMARK  164  A    between atoms: _403  and  _404
REMARK  165  A    between atoms: _403  and  _406
REMARK  166  A    between atoms: _406  and  _407
REMARK  167  A    between atoms: _407  and  _408
REMARK  168  A    between atoms: _410  and  _412
REMARK  169  A    between atoms: _412  and  _413
REMARK  170  A    between atoms: _412  and  _415
REMARK  171  A    between atoms: _415  and  _416
REMARK  172  A    between atoms: _419  and  _421
REMARK  173  A    between atoms: _421  and  _422
REMARK  174  A    between atoms: _424  and  _426
REMARK  175  A    between atoms: _426  and  _427
REMARK  176  A    between atoms: _429  and  _431
REMARK  177  A    between atoms: _431  and  _432
REMARK  178  A    between atoms: _431  and  _434
REMARK  179  A    between atoms: _434  and  _435
REMARK  180  A    between atoms: _438  and  _440
REMARK  181  A    between atoms: _440  and  _441
REMARK  182  A    between atoms: _443  and  _445
REMARK  183  A    between atoms: _445  and  _446
REMARK  184  A    between atoms: _448  and  _450
REMARK  185  A    between atoms: _450  and  _451
REMARK  186  A    between atoms: _450  and  _453
REMARK  187  A    between atoms: _453  and  _454
REMARK  188  A    between atoms: _460  and  _462
REMARK  189  A    between atoms: _462  and  _463
REMARK  190  A    between atoms: _462  and  _465
REMARK  191  A    between atoms: _465  and  _466
REMARK  192  A    between atoms: _469  and  _471
REMARK  193  A    between atoms: _471  and  _472
REMARK  194  A    between atoms: _471  and  _474
REMARK  195  A    between atoms: _477  and  _479
REMARK  196  A    between atoms: _479  and  _480
REMARK  197  A    between atoms: _479  and  _482
REMARK  198  A    between atoms: _482  and  _483
REMARK  199  A    between atoms: _487  and  _488
REMARK  200  A    between atoms: _493  and  _495
REMARK  201  A    between atoms: _495  and  _496
REMARK  202  A    between atoms: _495  and  _498
REMARK  203  A    between atoms: _498  and  _499
REMARK  204  A    between atoms: _505  and  _506
REMARK  205  A    between atoms: _511  and  _513
REMARK  206  A    between atoms: _513  and  _514
REMARK  207  A    between atoms: _513  and  _516
REMARK  208  A    between atoms: _519  and  _521
REMARK  209  A    between atoms: _521  and  _522
REMARK  210  A    between atoms: _521  and  _524
REMARK  211  A    between atoms: _524  and  _525
REMARK  212  A    between atoms: _530  and  _532
REMARK  213  A    between atoms: _532  and  _533
REMARK  214  A    between atoms: _532  and  _535
REMARK  215  A    between atoms: _535  and  _536
REMARK  216  A    between atoms: _539  and  _541
REMARK  217  A    between atoms: _541  and  _542
REMARK  218  A    between atoms: _541  and  _544
REMARK  219  A    between atoms: _544  and  _545
REMARK  220  A    between atoms: _548  and  _550
REMARK  221  A    between atoms: _550  and  _551
REMARK  222  A    between atoms: _553  and  _555
REMARK  223  A    between atoms: _555  and  _556
REMARK  224  A    between atoms: _555  and  _558
REMARK  225  A    between atoms: _558  and  _559
REMARK  226  A    between atoms: _559  and  _560
REMARK  227  A    between atoms: _560  and  _561
REMARK  228  A    between atoms: _570  and  _572
REMARK  229  A    between atoms: _572  and  _573
REMARK  230  A    between atoms: _572  and  _575
REMARK  231  A    between atoms: _575  and  _576
REMARK                            x       y       z     vdW  Elec       q    Type
REMARK                         _______ _______ _______ _____ _____    ______ ____
ROOT
ATOM      1  C   ALA A   6      23.437   5.474  15.815  0.00  0.00    +0.241 C 
ATOM      2  N   ASP A   7      23.371   5.898  17.074  0.00  0.00    -0.297 N 
ATOM      3  H   ASP A   7      22.873   5.330  17.789  0.00  0.00    +0.150 HD
ATOM      4  O   ALA A   6      23.995   6.115  14.921  0.00  0.00    -0.273 OA
ENDROOT
BRANCH   1   5
ATOM      5  CA  ALA A   6      22.806   4.124  15.508  0.00  0.00    +0.149 C 
ATOM      6  CB  ALA A   6      23.878   3.114  15.140  0.00  0.00    +0.031 C 
BRANCH   5   9
ATOM      7  C   GLY A   5      20.544   4.396  14.669  0.00  0.00    +0.243 C 
ATOM      8  O   GLY A   5      20.093   4.522  15.811  0.00  0.00    -0.273 OA
ATOM      9  N   ALA A   6      21.843   4.244  14.418  0.00  0.00    -0.297 N 
ATOM     10  H   ALA A   6      22.175   4.210  13.433  0.00  0.00    +0.150 HD
BRANCH   7  11
ATOM     11  CA  GLY A   5      19.604   4.400  13.482  0.00  0.00    +0.176 C 
BRANCH  11  14
ATOM     12  C   THR A   4      20.678   5.714  11.743  0.00  0.00    +0.243 C 
ATOM     13  O   THR A   4      20.449   6.757  12.358  0.00  0.00    -0.273 OA
ATOM     14  N   GLY A   5      20.269   4.529  12.192  0.00  0.00    -0.295 N 
ATOM     15  H   GLY A   5      20.427   3.681  11.612  0.00  0.00    +0.150 HD
BRANCH  12  16
ATOM     16  CA  THR A   4      21.426   5.755  10.410  0.00  0.00    +0.176 C 
BRANCH  16  19
ATOM     17  C   ASP A   3      22.968   3.910  10.713  0.00  0.00    +0.241 C 
ATOM     18  O   ASP A   3      23.446   4.424  11.725  0.00  0.00    -0.273 OA
ATOM     19  N   THR A   4      21.985   4.466  10.014  0.00  0.00    -0.295 N 
ATOM     20  H   THR A   4      21.610   3.978   9.176  0.00  0.00    +0.150 HD
BRANCH  17  21
ATOM     21  CA  ASP A   3      23.460   2.550  10.233  0.00  0.00    +0.160 C 
BRANCH  21  23
ATOM     22  C   LEU A   2      24.723   2.138   8.200  0.00  0.00    +0.241 C 
ATOM     23  N   ASP A   3      24.681   2.622   9.439  0.00  0.00    -0.297 N 
ATOM     24  H   ASP A   3      25.532   3.058   9.847  0.00  0.00    +0.150 HD
ATOM     25  O   LEU A   2      23.719   1.821   7.555  0.00  0.00    -0.273 OA
BRANCH  22  26
ATOM     26  CA  LEU A   2      26.101   1.968   7.588  0.00  0.00    +0.149 C 
BRANCH  26  29
ATOM     27  C   LEU A   1      26.796  -0.159   8.542  0.00  0.00    +0.238 C 
ATOM     28  O   LEU A   1      27.026   0.364   9.629  0.00  0.00    -0.274 OA
ATOM     29  N   LEU A   2      26.371   0.535   7.490  0.00  0.00    -0.297 N 
ATOM     30  H   LEU A   2      26.228   0.049   6.582  0.00  0.00    +0.150 HD
BRANCH  27  31
ATOM     31  CA  LEU A   1      26.975  -1.666   8.377  0.00  0.00    +0.145 C 
BRANCH  31  32
ATOM     32  N   LEU A   1      28.320  -2.076   8.779  0.00  0.00    -0.238 NA
ATOM     33  H   LEU A   1      28.498  -2.267   9.786  0.00  0.00    +0.142 HD
ENDBRANCH  31  32
BRANCH  31  34
ATOM     34  CB  LEU A   1      25.985  -2.398   9.287  0.00  0.00    +0.026 C 
BRANCH  34  35
ATOM     35  CG  LEU A   1      24.476  -2.311   9.052  0.00  0.00    +0.002 C 
ATOM     36  CD2 LEU A   1      23.735  -2.952  10.222  0.00  0.00    +0.000 C 
ATOM     37  CD1 LEU A   1      24.109  -3.015   7.766  0.00  0.00    +0.000 C 
ENDBRANCH  34  35
ENDBRANCH  31  34
ENDBRANCH  27  31
ENDBRANCH  26  29
BRANCH  26  38
ATOM     38  CB  LEU A   2      26.161   2.657   6.222  0.00  0.00    +0.029 C 
BRANCH  38  39
ATOM     39  CG  LEU A   2      27.473   2.470   5.469  0.00  0.00    +0.002 C 
ATOM     40  CD2 LEU A   2      28.662   2.972   6.275  0.00  0.00    +0.000 C 
ATOM     41  CD1 LEU A   2      27.396   3.159   4.112  0.00  0.00    +0.000 C 
ENDBRANCH  38  39
ENDBRANCH  26  38
ENDBRANCH  22  26
ENDBRANCH  21  23
BRANCH  21  42
ATOM     42  CB  ASP A   3      23.676   1.658  11.454  0.00  0.00    +0.143 C 
BRANCH  42  43
ATOM     43  CG  ASP A   3      22.388   1.416  12.229  0.00  0.00    +0.367 C 
ATOM     44  OD2 ASP A   3      22.462   0.682  13.228  0.00  0.00    -0.246 OA
ATOM     45  OD1 ASP A   3      21.323   1.946  11.833  0.00  0.00    -0.246 OA
ENDBRANCH  42  43
ENDBRANCH  21  42
ENDBRANCH  17  21
ENDBRANCH  16  19
BRANCH  16  46
ATOM     46  CB  THR A   4      20.476   6.280   9.329  0.00  0.00    +0.137 C 
ATOM     47  CG2 THR A   4      21.212   6.416   8.004  0.00  0.00    +0.034 C 
BRANCH  46  48
ATOM     48  OG1 THR A   4      19.395   5.356   9.152  0.00  0.00    -0.382 OA
ATOM     49  HG1 THR A   4      18.903   5.259  10.005  0.00  0.00    +0.210 HD
ENDBRANCH  46  48
ENDBRANCH  16  46
ENDBRANCH  12  16
ENDBRANCH  11  14
ENDBRANCH   7  11
ENDBRANCH   5   9
ENDBRANCH   1   5
BRANCH   2  50
ATOM     50  CA  ASP A   7      23.998   7.161  17.453  0.00  0.00    +0.160 C 
BRANCH  50  51
ATOM     51  C   ASP A   7      25.510   7.025  17.397  0.00  0.00    +0.241 C 
ATOM     52  N   ASP A   8      25.982   5.835  17.761  0.00  0.00    -0.297 N 
ATOM     53  H   ASP A   8      25.299   5.067  17.922  0.00  0.00    +0.150 HD
ATOM     54  O   ASP A   7      26.217   7.990  17.081  0.00  0.00    -0.273 OA
BRANCH  52  55
ATOM     55  CA  ASP A   8      27.396   5.542  17.947  0.00  0.00    +0.160 C 
BRANCH  55  56
ATOM     56  C   ASP A   8      27.893   4.452  17.017  0.00  0.00    +0.241 C 
ATOM     57  N   THR A   9      29.216   4.356  16.926  0.00  0.00    -0.295 N 
ATOM     58  H   THR A   9      29.805   5.038  17.445  0.00  0.00    +0.150 HD
ATOM     59  O   ASP A   8      27.117   3.713  16.420  0.00  0.00    -0.273 OA
BRANCH  57  60
ATOM     60  CA  THR A   9      29.869   3.332  16.128  0.00  0.00    +0.176 C 
BRANCH  60  61
ATOM     61  C   THR A   9      30.316   2.210  17.061  0.00  0.00    +0.243 C 
ATOM     62  O   THR A   9      31.034   2.452  18.027  0.00  0.00    -0.273 OA
ATOM     63  N   VAL A  10      29.859   0.996  16.766  0.00  0.00    -0.297 N 
ATOM     64  H   VAL A  10      29.290   0.863  15.905  0.00  0.00    +0.150 HD
BRANCH  63  65
ATOM     65  CA  VAL A  10      30.136  -0.153  17.620  0.00  0.00    +0.149 C 
BRANCH  65  66
ATOM     66  C   VAL A  10      30.704  -1.284  16.783  0.00  0.00    +0.241 C 
ATOM     67  N   LEU A  11      31.951  -1.641  17.073  0.00  0.00    -0.298 N 
ATOM     68  H   LEU A  11      32.461  -1.132  17.823  0.00  0.00    +0.150 HD
ATOM     69  O   VAL A  10      30.026  -1.823  15.903  0.00  0.00    -0.273 OA
BRANCH  67  70
ATOM     70  CA  LEU A  11      32.623  -2.723  16.371  0.00  0.00    +0.137 C 
BRANCH  70  71
ATOM     71  C   LEU A  11      32.695  -3.971  17.238  0.00  0.00    +0.227 C 
ATOM     72  O   LEU A  11      32.666  -3.904  18.467  0.00  0.00    -0.286 OA
ENDBRANCH  70  71
BRANCH  70  73
ATOM     73  CB  LEU A  11      34.033  -2.308  15.947  0.00  0.00    +0.028 C 
BRANCH  73  74
ATOM     74  CG  LEU A  11      34.130  -1.015  15.139  0.00  0.00    +0.002 C 
ATOM     75  CD2 LEU A  11      35.538  -0.875  14.588  0.00  0.00    +0.000 C 
ATOM     76  CD1 LEU A  11      33.126  -0.965  14.008  0.00  0.00    +0.000 C 
ENDBRANCH  73  74
ENDBRANCH  70  73
ENDBRANCH  67  70
ENDBRANCH  65  66
BRANCH  65  77
ATOM     77  CB  VAL A  10      28.876  -0.662  18.345  0.00  0.00    +0.027 C 
ATOM     78  CG2 VAL A  10      29.249  -1.743  19.363  0.00  0.00    +0.002 C 
ATOM     79  CG1 VAL A  10      28.184   0.489  19.053  0.00  0.00    +0.002 C 
ENDBRANCH  65  77
ENDBRANCH  63  65
ENDBRANCH  60  61
BRANCH  60  80
ATOM     80  CB  THR A   9      31.047   3.955  15.376  0.00  0.00    +0.137 C 
ATOM     81  CG2 THR A   9      31.911   2.908  14.678  0.00  0.00    +0.034 C 
BRANCH  80  82
ATOM     82  OG1 THR A   9      30.528   4.874  14.409  0.00  0.00    -0.382 OA
ATOM     83  HG1 THR A   9      30.009   5.579  14.871  0.00  0.00    +0.210 HD
ENDBRANCH  80  82
ENDBRANCH  60  80
ENDBRANCH  57  60
ENDBRANCH  55  56
BRANCH  55  84
ATOM     84  CB  ASP A   8      27.643   5.057  19.378  0.00  0.00    +0.143 C 
BRANCH  84  85
ATOM     85  CG  ASP A   8      27.138   6.023  20.418  0.00  0.00    +0.367 C 
ATOM     86  OD2 ASP A   8      26.419   5.575  21.337  0.00  0.00    -0.246 OA
ATOM     87  OD1 ASP A   8      27.461   7.220  20.321  0.00  0.00    -0.246 OA
ENDBRANCH  84  85
ENDBRANCH  55  84
ENDBRANCH  52  55
ENDBRANCH  50  51
BRANCH  50  88
ATOM     88  CB  ASP A   7      23.632   7.555  18.883  0.00  0.00    +0.143 C 
BRANCH  88  89
ATOM     89  CG  ASP A   7      22.155   7.821  19.079  0.00  0.00    +0.367 C 
ATOM     90  OD2 ASP A   7      21.756   7.874  20.262  0.00  0.00    -0.246 OA
ATOM     91  OD1 ASP A   7      21.401   7.975  18.098  0.00  0.00    -0.246 OA
ENDBRANCH  88  89
ENDBRANCH  50  88
ENDBRANCH   2  50
TORSDOF 39
REMARK  Name = ../refined-set-2016/2fgv/2fgv_pocket.pdb
REMARK  231 active torsions:
REMARK  status: ('A' for Active; 'I' for Inactive)
REMARK    1  A    between atoms: _1  and  _3
REMARK    2  A    between atoms: _3  and  _4
REMARK    3  A    between atoms: _3  and  _6
REMARK    4  A    between atoms: _6  and  _7
REMARK    5  A    between atoms: _7  and  _8
REMARK    6  A    between atoms: _8  and  _9
REMARK    7  A    between atoms: _18  and  _20
REMARK    8  A    between atoms: _20  and  _21
REMARK    9  A    between atoms: _20  and  _23
REMARK   10  A    between atoms: _23  and  _24
REMARK   11  A    between atoms: _27  and  _29
REMARK   12  A    between atoms: _29  and  _30
REMARK   13  A    between atoms: _29  and  _32
REMARK   14  A    between atoms: _32  and  _33
REMARK   15  A    between atoms: _36  and  _38
REMARK   16  A    between atoms: _38  and  _39
REMARK   17  A    between atoms: _38  and  _41
REMARK   18  A    between atoms: _41  and  _42
REMARK   19  A    between atoms: _45  and  _47
REMARK   20  A    between atoms: _47  and  _48
REMARK   21  A    between atoms: _47  and  _50
REMARK   22  A    between atoms: _50  and  _51
REMARK   23  A    between atoms: _54  and  _56
REMARK   24  A    between atoms: _56  and  _57
REMARK   25  A    between atoms: _59  and  _61
REMARK   26  A    between atoms: _61  and  _62
REMARK   27  A    between atoms: _65  and  _67
REMARK   28  A    between atoms: _67  and  _68
REMARK   29  A    between atoms: _67  and  _70
REMARK   30  A    between atoms: _70  and  _71
REMARK   31  A    between atoms: _74  and  _76
REMARK   32  A    between atoms: _76  and  _77
REMARK   33  A    between atoms: _76  and  _79
REMARK   34  A    between atoms: _79  and  _80
REMARK   35  A    between atoms: _83  and  _85
REMARK   36  A    between atoms: _85  and  _86
REMARK   37  A    between atoms: _85  and  _88
REMARK   38  A    between atoms: _88  and  _89
REMARK   39  A    between atoms: _92  and  _94
REMARK   40  A    between atoms: _94  and  _95
REMARK   41  A    between atoms: _94  and  _97
REMARK   42  A    between atoms: _100  and  _102
REMARK   43  A    between atoms: _102  and  _103
REMARK   44  A    between atoms: _102  and  _105
REMARK   45  A    between atoms: _105  and  _106
REMARK   46  A    between atoms: _106  and  _107
REMARK   47  A    between atoms: _107  and  _108
REMARK   48  A    between atoms: _108  and  _109
REMARK   49  A    between atoms: _113  and  _115
REMARK   50  A    between atoms: _115  and  _116
REMARK   51  A    between atoms: _115  and  _118
REMARK   52  A    between atoms: _118  and  _119
REMARK   53  A    between atoms: _119  and  _120
REMARK   54  A    between atoms: _122  and  _124
REMARK   55  A    between atoms: _124  and  _125
REMARK   56  A    between atoms: _124  and  _127
REMARK   57  A    between atoms: _127  and  _128
REMARK   58  A    between atoms: _131  and  _133
REMARK   59  A    between atoms: _133  and  _134
REMARK   60  A    between atoms: _136  and  _138
REMARK   61  A    between atoms: _138  and  _139
REMARK   62  A    between atoms: _141  and  _143
REMARK   63  A    between atoms: _143  and  _144
REMARK   64  A    between atoms: _143  and  _146
REMARK   65  A    between atoms: _146  and  _147
REMARK   66  A    between atoms: _150  and  _152
REMARK   67  A    between atoms: _152  and  _153
REMARK   68  A    between atoms: _155  and  _157
REMARK   69  A    between atoms: _157  and  _158
REMARK   70  A    between atoms: _160  and  _162
REMARK   71  A    between atoms: _162  and  _163
REMARK   72  A    between atoms: _162  and  _165
REMARK   73  A    between atoms: _165  and  _166
REMARK   74  A    between atoms: _172  and  _174
REMARK   75  A    between atoms: _174  and  _175
REMARK   76  A    between atoms: _174  and  _177
REMARK   77  A    between atoms: _177  and  _178
REMARK   78  A    between atoms: _181  and  _183
REMARK   79  A    between atoms: _183  and  _184
REMARK   80  A    between atoms: _183  and  _186
REMARK   81  A    between atoms: _189  and  _191
REMARK   82  A    between atoms: _191  and  _192
REMARK   83  A    between atoms: _191  and  _194
REMARK   84  A    between atoms: _194  and  _195
REMARK   85  A    between atoms: _199  and  _200
REMARK   86  A    between atoms: _205  and  _207
REMARK   87  A    between atoms: _207  and  _208
REMARK   88  A    between atoms: _207  and  _210
REMARK   89  A    between atoms: _210  and  _211
REMARK   90  A    between atoms: _217  and  _218
REMARK   91  A    between atoms: _223  and  _225
REMARK   92  A    between atoms: _225  and  _226
REMARK   93  A    between atoms: _225  and  _228
REMARK   94  A    between atoms: _231  and  _233
REMARK   95  A    between atoms: _233  and  _234
REMARK   96  A    between atoms: _233  and  _236
REMARK   97  A    between atoms: _236  and  _237
REMARK   98  A    between atoms: _242  and  _244
REMARK   99  A    between atoms: _244  and  _245
REMARK  100  A    between atoms: _244  and  _247
REMARK  101  A    between atoms: _247  and  _248
REMARK  102  A    between atoms: _251  and  _253
REMARK  103  A    between atoms: _253  and  _254
REMARK  104  A    between atoms: _253  and  _256
REMARK  105  A    between atoms: _256  and  _257
REMARK  106  A    between atoms: _260  and  _262
REMARK  107  A    between atoms: _262  and  _263
REMARK  108  A    between atoms: _265  and  _267
REMARK  109  A    between atoms: _267  and  _268
REMARK  110  A    between atoms: _267  and  _270
REMARK  111  A    between atoms: _270  and  _271
REMARK  112  A    between atoms: _271  and  _272
REMARK  113  A    between atoms: _272  and  _273
REMARK  114  A    between atoms: _282  and  _284
REMARK  115  A    between atoms: _284  and  _285
REMARK  116  A    between atoms: _284  and  _287
REMARK  117  A    between atoms: _287  and  _288
REMARK  118  A    between atoms: _293  and  _295
REMARK  119  A    between atoms: _295  and  _296
REMARK  120  A    between atoms: _295  and  _298
REMARK  121  A    between atoms: _298  and  _299
REMARK  122  A    between atoms: _299  and  _300
REMARK  123  A    between atoms: _300  and  _301
REMARK  124  A    between atoms: _310  and  _312
REMARK  125  A    between atoms: _312  and  _313
REMARK  126  A    between atoms: _312  and  _315
REMARK  127  A    between atoms: _315  and  _316
REMARK  128  A    between atoms: _319  and  _321
REMARK  129  A    between atoms: _321  and  _322
REMARK  130  A    between atoms: _321  and  _324
REMARK  131  A    between atoms: _324  and  _325
REMARK  132  A    between atoms: _328  and  _330
REMARK  133  A    between atoms: _330  and  _331
REMARK  134  A    between atoms: _330  and  _333
REMARK  135  A    between atoms: _333  and  _334
REMARK  136  A    between atoms: _337  and  _339
REMARK  137  A    between atoms: _339  and  _340
REMARK  138  A    between atoms: _339  and  _342
REMARK  139  A    between atoms: _342  and  _343
REMARK  140  A    between atoms: _346  and  _348
REMARK  141  A    between atoms: _348  and  _349
REMARK  142  A    between atoms: _351  and  _353
REMARK  143  A    between atoms: _353  and  _354
REMARK  144  A    between atoms: _357  and  _359
REMARK  145  A    between atoms: _359  and  _360
REMARK  146  A    between atoms: _359  and  _362
REMARK  147  A    between atoms: _362  and  _363
REMARK  148  A    between atoms: _366  and  _368
REMARK  149  A    between atoms: _368  and  _369
REMARK  150  A    between atoms: _368  and  _371
REMARK  151  A    between atoms: _371  and  _372
REMARK  152  A    between atoms: _375  and  _377
REMARK  153  A    between atoms: _377  and  _378
REMARK  154  A    between atoms: _377  and  _380
REMARK  155  A    between atoms: _380  and  _381
REMARK  156  A    between atoms: _384  and  _386
REMARK  157  A    between atoms: _386  and  _387
REMARK  158  A    between atoms: _386  and  _389
REMARK  159  A    between atoms: _392  and  _394
REMARK  160  A    between atoms: _394  and  _395
REMARK  161  A    between atoms: _394  and  _397
REMARK  162  A    between atoms: _397  and  _398
REMARK  163  A    between atoms: _401  and  _403
REMARK  164  A    between atoms: _403  and  _404
REMARK  165  A    between atoms: _403  and  _406
REMARK  166  A    between atoms: _406  and  _407
REMARK  167  A    between atoms: _407  and  _408
REMARK  168  A    between atoms: _410  and  _412
REMARK  169  A    between atoms: _412  and  _413
REMARK  170  A    between atoms: _412  and  _415
REMARK  171  A    between atoms: _415  and  _416
REMARK  172  A    between atoms: _419  and  _421
REMARK  173  A    between atoms: _421  and  _422
REMARK  174  A    between atoms: _424  and  _426
REMARK  175  A    between atoms: _426  and  _427
REMARK  176  A    between atoms: _429  and  _431
REMARK  177  A    between atoms: _431  and  _432
REMARK  178  A    between atoms: _431  and  _434
REMARK  179  A    between atoms: _434  and  _435
REMARK  180  A    between atoms: _438  and  _440
REMARK  181  A    between atoms: _440  and  _441
REMARK  182  A    between atoms: _443  and  _445
REMARK  183  A    between atoms: _445  and  _446
REMARK  184  A    between atoms: _448  and  _450
REMARK  185  A    between atoms: _450  and  _451
REMARK  186  A    between atoms: _450  and  _453
REMARK  187  A    between atoms: _453  and  _454
REMARK  188  A    between atoms: _460  and  _462
REMARK  189  A    between atoms: _462  and  _463
REMARK  190  A    between atoms: _462  and  _465
REMARK  191  A    between atoms: _465  and  _466
REMARK  192  A    between atoms: _469  and  _471
REMARK  193  A    between atoms: _471  and  _472
REMARK  194  A    between atoms: _471  and  _474
REMARK  195  A    between atoms: _477  and  _479
REMARK  196  A    between atoms: _479  and  _480
REMARK  197  A    between atoms: _479  and  _482
REMARK  198  A    between atoms: _482  and  _483
REMARK  199  A    between atoms: _487  and  _488
REMARK  200  A    between atoms: _493  and  _495
REMARK  201  A    between atoms: _495  and  _496
REMARK  202  A    between atoms: _495  and  _498
REMARK  203  A    between atoms: _498  and  _499
REMARK  204  A    between atoms: _505  and  _506
REMARK  205  A    between atoms: _511  and  _513
REMARK  206  A    between atoms: _513  and  _514
REMARK  207  A    between atoms: _513  and  _516
REMARK  208  A    between atoms: _519  and  _521
REMARK  209  A    between atoms: _521  and  _522
REMARK  210  A    between atoms: _521  and  _524
REMARK  211  A    between atoms: _524  and  _525
REMARK  212  A    between atoms: _530  and  _532
REMARK  213  A    between atoms: _532  and  _533
REMARK  214  A    between atoms: _532  and  _535
REMARK  215  A    between atoms: _535  and  _536
REMARK  216  A    between atoms: _539  and  _541
REMARK  217  A    between atoms: _541  and  _542
REMARK  218  A    between atoms: _541  and  _544
REMARK  219  A    between atoms: _544  and  _545
REMARK  220  A    between atoms: _548  and  _550
REMARK  221  A    between atoms: _550  and  _551
REMARK  222  A    between atoms: _553  and  _555
REMARK  223  A    between atoms: _555  and  _556
REMARK  224  A    between atoms: _555  and  _558
REMARK  225  A    between atoms: _558  and  _559
REMARK  226  A    between atoms: _559  and  _560
REMARK  227  A    between atoms: _560  and  _561
REMARK  228  A    between atoms: _570  and  _572
REMARK  229  A    between atoms: _572  and  _573
REMARK  230  A    between atoms: _572  and  _575
REMARK  231  A    between atoms: _575  and  _576
REMARK                            x       y       z     vdW  Elec       q    Type
REMARK                         _______ _______ _______ _____ _____    ______ ____
ROOT
ATOM      1  CA  ILE A   5      17.075  -3.105  20.949  0.00  0.00    +0.149 C 
ENDROOT
BRANCH   1   2
ATOM      2  C   ILE A   5      16.897  -4.202  21.981  0.00  0.00    +0.241 C 
ATOM      3  O   ILE A   5      15.778  -4.413  22.453  0.00  0.00    -0.273 OA
ATOM      4  N   GLY A   6      17.982  -4.891  22.332  0.00  0.00    -0.295 N 
ATOM      5  H   GLY A   6      18.902  -4.637  21.918  0.00  0.00    +0.150 HD
BRANCH   4   6
ATOM      6  CA  GLY A   6      17.908  -5.996  23.286  0.00  0.00    +0.176 C 
BRANCH   6   7
ATOM      7  C   GLY A   6      18.243  -5.656  24.729  0.00  0.00    +0.243 C 
ATOM      8  O   GLY A   6      18.043  -6.489  25.608  0.00  0.00    -0.273 OA
ATOM      9  N   GLY A   7      18.739  -4.446  24.979  0.00  0.00    -0.295 N 
ATOM     10  H   GLY A   7      18.795  -3.760  24.199  0.00  0.00    +0.150 HD
BRANCH   9  11
ATOM     11  CA  GLY A   7      19.209  -4.040  26.303  0.00  0.00    +0.176 C 
BRANCH  11  12
ATOM     12  C   GLY A   7      20.596  -3.417  26.217  0.00  0.00    +0.243 C 
ATOM     13  N   PHE A   8      21.331  -3.391  27.323  0.00  0.00    -0.297 N 
ATOM     14  H   PHE A   8      20.953  -3.830  28.187  0.00  0.00    +0.150 HD
ATOM     15  O   GLY A   7      21.005  -2.971  25.155  0.00  0.00    -0.273 OA
BRANCH  13  16
ATOM     16  CA  PHE A   8      22.649  -2.769  27.368  0.00  0.00    +0.153 C 
BRANCH  16  17
ATOM     17  C   PHE A   8      23.791  -3.780  27.341  0.00  0.00    +0.241 C 
ATOM     18  O   PHE A   8      23.638  -4.928  27.757  0.00  0.00    -0.273 OA
ATOM     19  N   ILE A   9      24.933  -3.329  26.835  0.00  0.00    -0.298 N 
ATOM     20  H   ILE A   9      24.951  -2.387  26.396  0.00  0.00    +0.150 HD
BRANCH  19  21
ATOM     21  CA  ILE A   9      26.159  -4.109  26.875  0.00  0.00    +0.137 C 
BRANCH  21  22
ATOM     22  CB  ILE A   9      26.556  -4.694  25.499  0.00  0.00    +0.026 C 
ATOM     23  CG2 ILE A   9      25.502  -5.657  24.991  0.00  0.00    +0.002 C 
BRANCH  22  24
ATOM     24  CG1 ILE A   9      26.795  -3.581  24.483  0.00  0.00    +0.002 C 
ATOM     25  CD1 ILE A   9      27.491  -4.022  23.220  0.00  0.00    +0.000 C 
ENDBRANCH  22  24
ENDBRANCH  21  22
BRANCH  21  26
ATOM     26  C   ILE A   9      27.292  -3.216  27.365  0.00  0.00    +0.227 C 
ATOM     27  O   ILE A   9      27.209  -1.984  27.321  0.00  0.00    -0.286 OA
ENDBRANCH  21  26
ENDBRANCH  19  21
ENDBRANCH  16  17
BRANCH  16  28
ATOM     28  CB  PHE A   8      22.775  -1.881  28.608  0.00  0.00    +0.055 C 
BRANCH  28  29
ATOM     29  CG  PHE A   8      21.989  -0.608  28.501  0.00  0.00    -0.020 A 
ATOM     30  CD2 PHE A   8      20.604  -0.632  28.523  0.00  0.00    -0.004 A 
ATOM     31  CE2 PHE A   8      19.874   0.541  28.406  0.00  0.00    -0.000 A 
ATOM     32  CZ  PHE A   8      20.544   1.745  28.259  0.00  0.00    -0.000 A 
ATOM     33  CE1 PHE A   8      21.923   1.779  28.230  0.00  0.00    -0.000 A 
ATOM     34  CD1 PHE A   8      22.641   0.603  28.342  0.00  0.00    -0.004 A 
ENDBRANCH  28  29
ENDBRANCH  16  28
ENDBRANCH  13  16
ENDBRANCH  11  12
ENDBRANCH   9  11
ENDBRANCH   6   7
ENDBRANCH   4   6
ENDBRANCH   1   2
BRANCH   1  37
ATOM     35  C   GLY A   4      18.853  -1.877  22.028  0.00  0.00    +0.243 C 
ATOM     36  O   GLY A   4      18.243  -1.833  23.090  0.00  0.00    -0.273 OA
ATOM     37  N   ILE A   5      18.424  -2.563  20.976  0.00  0.00    -0.297 N 
ATOM     38  H   ILE A   5      19.057  -2.714  20.165  0.00  0.00    +0.150 HD
BRANCH  35  39
ATOM     39  CA  GLY A   4      20.155  -1.128  21.853  0.00  0.00    +0.176 C 
BRANCH  39  41
ATOM     40  C   GLY A   3      21.406   0.181  23.476  0.00  0.00    +0.243 C 
ATOM     41  N   GLY A   4      20.850  -0.974  23.125  0.00  0.00    -0.295 N 
ATOM     42  H   GLY A   4      20.912  -1.786  23.772  0.00  0.00    +0.150 HD
ATOM     43  O   GLY A   3      21.529   1.129  22.706  0.00  0.00    -0.273 OA
BRANCH  40  44
ATOM     44  CA  GLY A   3      21.898   0.283  24.904  0.00  0.00    +0.176 C 
BRANCH  44  47
ATOM     45  C   ILE A   2      24.280   0.484  25.412  0.00  0.00    +0.241 C 
ATOM     46  O   ILE A   2      24.416  -0.718  25.629  0.00  0.00    -0.273 OA
ATOM     47  N   GLY A   3      23.142   1.035  24.998  0.00  0.00    -0.295 N 
ATOM     48  H   GLY A   3      23.141   2.040  24.732  0.00  0.00    +0.150 HD
BRANCH  45  49
ATOM     49  CA  ILE A   2      25.451   1.432  25.591  0.00  0.00    +0.148 C 
BRANCH  49  52
ATOM     50  C   MET A   1      26.964   1.683  27.485  0.00  0.00    +0.238 C 
ATOM     51  O   MET A   1      26.836   2.904  27.519  0.00  0.00    -0.274 OA
ATOM     52  N   ILE A   2      26.393   0.905  26.572  0.00  0.00    -0.297 N 
ATOM     53  H   ILE A   2      26.624  -0.109  26.556  0.00  0.00    +0.150 HD
BRANCH  50  54
ATOM     54  CA  MET A   1      27.817   0.978  28.522  0.00  0.00    +0.146 C 
BRANCH  54  55
ATOM     55  N   MET A   1      28.947   1.823  28.879  0.00  0.00    -0.238 NA
ATOM     56  H   MET A   1      28.783   2.801  29.193  0.00  0.00    +0.142 HD
ENDBRANCH  54  55
BRANCH  54  57
ATOM     57  CB  MET A   1      26.991   0.659  29.765  0.00  0.00    +0.038 C 
BRANCH  57  58
ATOM     58  CG  MET A   1      27.722  -0.255  30.737  0.00  0.00    +0.060 C 
BRANCH  58  59
ATOM     59  SD  MET A   1      26.774  -0.587  32.230  0.00  0.00    -0.139 S 
ATOM     60  CE  MET A   1      25.425  -1.548  31.552  0.00  0.00    +0.069 C 
ENDBRANCH  58  59
ENDBRANCH  57  58
ENDBRANCH  54  57
ENDBRANCH  50  54
ENDBRANCH  49  52
BRANCH  49  61
ATOM     61  CB  ILE A   2      26.102   1.647  24.217  0.00  0.00    +0.027 C 
ATOM     62  CG2 ILE A   2      27.115   2.759  24.280  0.00  0.00    +0.002 C 
BRANCH  61  63
ATOM     63  CG1 ILE A   2      26.736   0.351  23.706  0.00  0.00    +0.002 C 
ATOM     64  CD1 ILE A   2      27.156   0.423  22.270  0.00  0.00    +0.000 C 
ENDBRANCH  61  63
ENDBRANCH  49  61
ENDBRANCH  45  49
ENDBRANCH  44  47
ENDBRANCH  40  44
ENDBRANCH  39  41
ENDBRANCH  35  39
ENDBRANCH   1  37
BRANCH   1  65
ATOM     65  CB  ILE A   5      16.685  -3.624  19.555  0.00  0.00    +0.027 C 
ATOM     66  CG2 ILE A   5      17.366  -4.955  19.253  0.00  0.00    +0.002 C 
BRANCH  65  67
ATOM     67  CG1 ILE A   5      15.163  -3.725  19.425  0.00  0.00    +0.002 C 
ATOM     68  CD1 ILE A   5      14.706  -3.840  18.001  0.00  0.00    +0.000 C 
ENDBRANCH  65  67
ENDBRANCH   1  65
TORSDOF 29
REMARK  Name = ../refined-set-2016/2fgv/2fgv_pocket.pdb
REMARK  231 active torsions:
REMARK  status: ('A' for Active; 'I' for Inactive)
REMARK    1  A    between atoms: _1  and  _3
REMARK    2  A    between atoms: _3  and  _4
REMARK    3  A    between atoms: _3  and  _6
REMARK    4  A    between atoms: _6  and  _7
REMARK    5  A    between atoms: _7  and  _8
REMARK    6  A    between atoms: _8  and  _9
REMARK    7  A    between atoms: _18  and  _20
REMARK    8  A    between atoms: _20  and  _21
REMARK    9  A    between atoms: _20  and  _23
REMARK   10  A    between atoms: _23  and  _24
REMARK   11  A    between atoms: _27  and  _29
REMARK   12  A    between atoms: _29  and  _30
REMARK   13  A    between atoms: _29  and  _32
REMARK   14  A    between atoms: _32  and  _33
REMARK   15  A    between atoms: _36  and  _38
REMARK   16  A    between atoms: _38  and  _39
REMARK   17  A    between atoms: _38  and  _41
REMARK   18  A    between atoms: _41  and  _42
REMARK   19  A    between atoms: _45  and  _47
REMARK   20  A    between atoms: _47  and  _48
REMARK   21  A    between atoms: _47  and  _50
REMARK   22  A    between atoms: _50  and  _51
REMARK   23  A    between atoms: _54  and  _56
REMARK   24  A    between atoms: _56  and  _57
REMARK   25  A    between atoms: _59  and  _61
REMARK   26  A    between atoms: _61  and  _62
REMARK   27  A    between atoms: _65  and  _67
REMARK   28  A    between atoms: _67  and  _68
REMARK   29  A    between atoms: _67  and  _70
REMARK   30  A    between atoms: _70  and  _71
REMARK   31  A    between atoms: _74  and  _76
REMARK   32  A    between atoms: _76  and  _77
REMARK   33  A    between atoms: _76  and  _79
REMARK   34  A    between atoms: _79  and  _80
REMARK   35  A    between atoms: _83  and  _85
REMARK   36  A    between atoms: _85  and  _86
REMARK   37  A    between atoms: _85  and  _88
REMARK   38  A    between atoms: _88  and  _89
REMARK   39  A    between atoms: _92  and  _94
REMARK   40  A    between atoms: _94  and  _95
REMARK   41  A    between atoms: _94  and  _97
REMARK   42  A    between atoms: _100  and  _102
REMARK   43  A    between atoms: _102  and  _103
REMARK   44  A    between atoms: _102  and  _105
REMARK   45  A    between atoms: _105  and  _106
REMARK   46  A    between atoms: _106  and  _107
REMARK   47  A    between atoms: _107  and  _108
REMARK   48  A    between atoms: _108  and  _109
REMARK   49  A    between atoms: _113  and  _115
REMARK   50  A    between atoms: _115  and  _116
REMARK   51  A    between atoms: _115  and  _118
REMARK   52  A    between atoms: _118  and  _119
REMARK   53  A    between atoms: _119  and  _120
REMARK   54  A    between atoms: _122  and  _124
REMARK   55  A    between atoms: _124  and  _125
REMARK   56  A    between atoms: _124  and  _127
REMARK   57  A    between atoms: _127  and  _128
REMARK   58  A    between atoms: _131  and  _133
REMARK   59  A    between atoms: _133  and  _134
REMARK   60  A    between atoms: _136  and  _138
REMARK   61  A    between atoms: _138  and  _139
REMARK   62  A    between atoms: _141  and  _143
REMARK   63  A    between atoms: _143  and  _144
REMARK   64  A    between atoms: _143  and  _146
REMARK   65  A    between atoms: _146  and  _147
REMARK   66  A    between atoms: _150  and  _152
REMARK   67  A    between atoms: _152  and  _153
REMARK   68  A    between atoms: _155  and  _157
REMARK   69  A    between atoms: _157  and  _158
REMARK   70  A    between atoms: _160  and  _162
REMARK   71  A    between atoms: _162  and  _163
REMARK   72  A    between atoms: _162  and  _165
REMARK   73  A    between atoms: _165  and  _166
REMARK   74  A    between atoms: _172  and  _174
REMARK   75  A    between atoms: _174  and  _175
REMARK   76  A    between atoms: _174  and  _177
REMARK   77  A    between atoms: _177  and  _178
REMARK   78  A    between atoms: _181  and  _183
REMARK   79  A    between atoms: _183  and  _184
REMARK   80  A    between atoms: _183  and  _186
REMARK   81  A    between atoms: _189  and  _191
REMARK   82  A    between atoms: _191  and  _192
REMARK   83  A    between atoms: _191  and  _194
REMARK   84  A    between atoms: _194  and  _195
REMARK   85  A    between atoms: _199  and  _200
REMARK   86  A    between atoms: _205  and  _207
REMARK   87  A    between atoms: _207  and  _208
REMARK   88  A    between atoms: _207  and  _210
REMARK   89  A    between atoms: _210  and  _211
REMARK   90  A    between atoms: _217  and  _218
REMARK   91  A    between atoms: _223  and  _225
REMARK   92  A    between atoms: _225  and  _226
REMARK   93  A    between atoms: _225  and  _228
REMARK   94  A    between atoms: _231  and  _233
REMARK   95  A    between atoms: _233  and  _234
REMARK   96  A    between atoms: _233  and  _236
REMARK   97  A    between atoms: _236  and  _237
REMARK   98  A    between atoms: _242  and  _244
REMARK   99  A    between atoms: _244  and  _245
REMARK  100  A    between atoms: _244  and  _247
REMARK  101  A    between atoms: _247  and  _248
REMARK  102  A    between atoms: _251  and  _253
REMARK  103  A    between atoms: _253  and  _254
REMARK  104  A    between atoms: _253  and  _256
REMARK  105  A    between atoms: _256  and  _257
REMARK  106  A    between atoms: _260  and  _262
REMARK  107  A    between atoms: _262  and  _263
REMARK  108  A    between atoms: _265  and  _267
REMARK  109  A    between atoms: _267  and  _268
REMARK  110  A    between atoms: _267  and  _270
REMARK  111  A    between atoms: _270  and  _271
REMARK  112  A    between atoms: _271  and  _272
REMARK  113  A    between atoms: _272  and  _273
REMARK  114  A    between atoms: _282  and  _284
REMARK  115  A    between atoms: _284  and  _285
REMARK  116  A    between atoms: _284  and  _287
REMARK  117  A    between atoms: _287  and  _288
REMARK  118  A    between atoms: _293  and  _295
REMARK  119  A    between atoms: _295  and  _296
REMARK  120  A    between atoms: _295  and  _298
REMARK  121  A    between atoms: _298  and  _299
REMARK  122  A    between atoms: _299  and  _300
REMARK  123  A    between atoms: _300  and  _301
REMARK  124  A    between atoms: _310  and  _312
REMARK  125  A    between atoms: _312  and  _313
REMARK  126  A    between atoms: _312  and  _315
REMARK  127  A    between atoms: _315  and  _316
REMARK  128  A    between atoms: _319  and  _321
REMARK  129  A    between atoms: _321  and  _322
REMARK  130  A    between atoms: _321  and  _324
REMARK  131  A    between atoms: _324  and  _325
REMARK  132  A    between atoms: _328  and  _330
REMARK  133  A    between atoms: _330  and  _331
REMARK  134  A    between atoms: _330  and  _333
REMARK  135  A    between atoms: _333  and  _334
REMARK  136  A    between atoms: _337  and  _339
REMARK  137  A    between atoms: _339  and  _340
REMARK  138  A    between atoms: _339  and  _342
REMARK  139  A    between atoms: _342  and  _343
REMARK  140  A    between atoms: _346  and  _348
REMARK  141  A    between atoms: _348  and  _349
REMARK  142  A    between atoms: _351  and  _353
REMARK  143  A    between atoms: _353  and  _354
REMARK  144  A    between atoms: _357  and  _359
REMARK  145  A    between atoms: _359  and  _360
REMARK  146  A    between atoms: _359  and  _362
REMARK  147  A    between atoms: _362  and  _363
REMARK  148  A    between atoms: _366  and  _368
REMARK  149  A    between atoms: _368  and  _369
REMARK  150  A    between atoms: _368  and  _371
REMARK  151  A    between atoms: _371  and  _372
REMARK  152  A    between atoms: _375  and  _377
REMARK  153  A    between atoms: _377  and  _378
REMARK  154  A    between atoms: _377  and  _380
REMARK  155  A    between atoms: _380  and  _381
REMARK  156  A    between atoms: _384  and  _386
REMARK  157  A    between atoms: _386  and  _387
REMARK  158  A    between atoms: _386  and  _389
REMARK  159  A    between atoms: _392  and  _394
REMARK  160  A    between atoms: _394  and  _395
REMARK  161  A    between atoms: _394  and  _397
REMARK  162  A    between atoms: _397  and  _398
REMARK  163  A    between atoms: _401  and  _403
REMARK  164  A    between atoms: _403  and  _404
REMARK  165  A    between atoms: _403  and  _406
REMARK  166  A    between atoms: _406  and  _407
REMARK  167  A    between atoms: _407  and  _408
REMARK  168  A    between atoms: _410  and  _412
REMARK  169  A    between atoms: _412  and  _413
REMARK  170  A    between atoms: _412  and  _415
REMARK  171  A    between atoms: _415  and  _416
REMARK  172  A    between atoms: _419  and  _421
REMARK  173  A    between atoms: _421  and  _422
REMARK  174  A    between atoms: _424  and  _426
REMARK  175  A    between atoms: _426  and  _427
REMARK  176  A    between atoms: _429  and  _431
REMARK  177  A    between atoms: _431  and  _432
REMARK  178  A    between atoms: _431  and  _434
REMARK  179  A    between atoms: _434  and  _435
REMARK  180  A    between atoms: _438  and  _440
REMARK  181  A    between atoms: _440  and  _441
REMARK  182  A    between atoms: _443  and  _445
REMARK  183  A    between atoms: _445  and  _446
REMARK  184  A    between atoms: _448  and  _450
REMARK  185  A    between atoms: _450  and  _451
REMARK  186  A    between atoms: _450  and  _453
REMARK  187  A    between atoms: _453  and  _454
REMARK  188  A    between atoms: _460  and  _462
REMARK  189  A    between atoms: _462  and  _463
REMARK  190  A    between atoms: _462  and  _465
REMARK  191  A    between atoms: _465  and  _466
REMARK  192  A    between atoms: _469  and  _471
REMARK  193  A    between atoms: _471  and  _472
REMARK  194  A    between atoms: _471  and  _474
REMARK  195  A    between atoms: _477  and  _479
REMARK  196  A    between atoms: _479  and  _480
REMARK  197  A    between atoms: _479  and  _482
REMARK  198  A    between atoms: _482  and  _483
REMARK  199  A    between atoms: _487  and  _488
REMARK  200  A    between atoms: _493  and  _495
REMARK  201  A    between atoms: _495  and  _496
REMARK  202  A    between atoms: _495  and  _498
REMARK  203  A    between atoms: _498  and  _499
REMARK  204  A    between atoms: _505  and  _506
REMARK  205  A    between atoms: _511  and  _513
REMARK  206  A    between atoms: _513  and  _514
REMARK  207  A    between atoms: _513  and  _516
REMARK  208  A    between atoms: _519  and  _521
REMARK  209  A    between atoms: _521  and  _522
REMARK  210  A    between atoms: _521  and  _524
REMARK  211  A    between atoms: _524  and  _525
REMARK  212  A    between atoms: _530  and  _532
REMARK  213  A    between atoms: _532  and  _533
REMARK  214  A    between atoms: _532  and  _535
REMARK  215  A    between atoms: _535  and  _536
REMARK  216  A    between atoms: _539  and  _541
REMARK  217  A    between atoms: _541  and  _542
REMARK  218  A    between atoms: _541  and  _544
REMARK  219  A    between atoms: _544  and  _545
REMARK  220  A    between atoms: _548  and  _550
REMARK  221  A    between atoms: _550  and  _551
REMARK  222  A    between atoms: _553  and  _555
REMARK  223  A    between atoms: _555  and  _556
REMARK  224  A    between atoms: _555  and  _558
REMARK  225  A    between atoms: _558  and  _559
REMARK  226  A    between atoms: _559  and  _560
REMARK  227  A    between atoms: _560  and  _561
REMARK  228  A    between atoms: _570  and  _572
REMARK  229  A    between atoms: _572  and  _573
REMARK  230  A    between atoms: _572  and  _575
REMARK  231  A    between atoms: _575  and  _576
REMARK                            x       y       z     vdW  Elec       q    Type
REMARK                         _______ _______ _______ _____ _____    ______ ____
ROOT
ATOM      1  CA  VAL A   1      31.964  -1.715  25.611  0.00  0.00    +0.133 C 
ENDROOT
BRANCH   1   2
ATOM      2  CB  VAL A   1      31.325  -0.840  24.512  0.00  0.00    +0.023 C 
ATOM      3  CG2 VAL A   1      30.914   0.520  25.070  0.00  0.00    +0.002 C 
ATOM      4  CG1 VAL A   1      30.149  -1.560  23.880  0.00  0.00    +0.002 C 
ENDBRANCH   1   2
BRANCH   1   5
ATOM      5  N   VAL A   1      31.058  -1.926  26.733  0.00  0.00    -0.239 NA
ATOM      6  H   VAL A   1      30.853  -1.137  27.378  0.00  0.00    +0.142 HD
ENDBRANCH   1   5
BRANCH   1   7
ATOM      7  C   VAL A   1      33.238  -1.049  26.094  0.00  0.00    +0.224 C 
ATOM      8  O   VAL A   1      33.305  -0.540  27.210  0.00  0.00    -0.287 OA
ENDBRANCH   1   7
TORSDOF 3
REMARK  Name = ../refined-set-2016/2fgv/2fgv_pocket.pdb
REMARK  231 active torsions:
REMARK  status: ('A' for Active; 'I' for Inactive)
REMARK    1  A    between atoms: _1  and  _3
REMARK    2  A    between atoms: _3  and  _4
REMARK    3  A    between atoms: _3  and  _6
REMARK    4  A    between atoms: _6  and  _7
REMARK    5  A    between atoms: _7  and  _8
REMARK    6  A    between atoms: _8  and  _9
REMARK    7  A    between atoms: _18  and  _20
REMARK    8  A    between atoms: _20  and  _21
REMARK    9  A    between atoms: _20  and  _23
REMARK   10  A    between atoms: _23  and  _24
REMARK   11  A    between atoms: _27  and  _29
REMARK   12  A    between atoms: _29  and  _30
REMARK   13  A    between atoms: _29  and  _32
REMARK   14  A    between atoms: _32  and  _33
REMARK   15  A    between atoms: _36  and  _38
REMARK   16  A    between atoms: _38  and  _39
REMARK   17  A    between atoms: _38  and  _41
REMARK   18  A    between atoms: _41  and  _42
REMARK   19  A    between atoms: _45  and  _47
REMARK   20  A    between atoms: _47  and  _48
REMARK   21  A    between atoms: _47  and  _50
REMARK   22  A    between atoms: _50  and  _51
REMARK   23  A    between atoms: _54  and  _56
REMARK   24  A    between atoms: _56  and  _57
REMARK   25  A    between atoms: _59  and  _61
REMARK   26  A    between atoms: _61  and  _62
REMARK   27  A    between atoms: _65  and  _67
REMARK   28  A    between atoms: _67  and  _68
REMARK   29  A    between atoms: _67  and  _70
REMARK   30  A    between atoms: _70  and  _71
REMARK   31  A    between atoms: _74  and  _76
REMARK   32  A    between atoms: _76  and  _77
REMARK   33  A    between atoms: _76  and  _79
REMARK   34  A    between atoms: _79  and  _80
REMARK   35  A    between atoms: _83  and  _85
REMARK   36  A    between atoms: _85  and  _86
REMARK   37  A    between atoms: _85  and  _88
REMARK   38  A    between atoms: _88  and  _89
REMARK   39  A    between atoms: _92  and  _94
REMARK   40  A    between atoms: _94  and  _95
REMARK   41  A    between atoms: _94  and  _97
REMARK   42  A    between atoms: _100  and  _102
REMARK   43  A    between atoms: _102  and  _103
REMARK   44  A    between atoms: _102  and  _105
REMARK   45  A    between atoms: _105  and  _106
REMARK   46  A    between atoms: _106  and  _107
REMARK   47  A    between atoms: _107  and  _108
REMARK   48  A    between atoms: _108  and  _109
REMARK   49  A    between atoms: _113  and  _115
REMARK   50  A    between atoms: _115  and  _116
REMARK   51  A    between atoms: _115  and  _118
REMARK   52  A    between atoms: _118  and  _119
REMARK   53  A    between atoms: _119  and  _120
REMARK   54  A    between atoms: _122  and  _124
REMARK   55  A    between atoms: _124  and  _125
REMARK   56  A    between atoms: _124  and  _127
REMARK   57  A    between atoms: _127  and  _128
REMARK   58  A    between atoms: _131  and  _133
REMARK   59  A    between atoms: _133  and  _134
REMARK   60  A    between atoms: _136  and  _138
REMARK   61  A    between atoms: _138  and  _139
REMARK   62  A    between atoms: _141  and  _143
REMARK   63  A    between atoms: _143  and  _144
REMARK   64  A    between atoms: _143  and  _146
REMARK   65  A    between atoms: _146  and  _147
REMARK   66  A    between atoms: _150  and  _152
REMARK   67  A    between atoms: _152  and  _153
REMARK   68  A    between atoms: _155  and  _157
REMARK   69  A    between atoms: _157  and  _158
REMARK   70  A    between atoms: _160  and  _162
REMARK   71  A    between atoms: _162  and  _163
REMARK   72  A    between atoms: _162  and  _165
REMARK   73  A    between atoms: _165  and  _166
REMARK   74  A    between atoms: _172  and  _174
REMARK   75  A    between atoms: _174  and  _175
REMARK   76  A    between atoms: _174  and  _177
REMARK   77  A    between atoms: _177  and  _178
REMARK   78  A    between atoms: _181  and  _183
REMARK   79  A    between atoms: _183  and  _184
REMARK   80  A    between atoms: _183  and  _186
REMARK   81  A    between atoms: _189  and  _191
REMARK   82  A    between atoms: _191  and  _192
REMARK   83  A    between atoms: _191  and  _194
REMARK   84  A    between atoms: _194  and  _195
REMARK   85  A    between atoms: _199  and  _200
REMARK   86  A    between atoms: _205  and  _207
REMARK   87  A    between atoms: _207  and  _208
REMARK   88  A    between atoms: _207  and  _210
REMARK   89  A    between atoms: _210  and  _211
REMARK   90  A    between atoms: _217  and  _218
REMARK   91  A    between atoms: _223  and  _225
REMARK   92  A    between atoms: _225  and  _226
REMARK   93  A    between atoms: _225  and  _228
REMARK   94  A    between atoms: _231  and  _233
REMARK   95  A    between atoms: _233  and  _234
REMARK   96  A    between atoms: _233  and  _236
REMARK   97  A    between atoms: _236  and  _237
REMARK   98  A    between atoms: _242  and  _244
REMARK   99  A    between atoms: _244  and  _245
REMARK  100  A    between atoms: _244  and  _247
REMARK  101  A    between atoms: _247  and  _248
REMARK  102  A    between atoms: _251  and  _253
REMARK  103  A    between atoms: _253  and  _254
REMARK  104  A    between atoms: _253  and  _256
REMARK  105  A    between atoms: _256  and  _257
REMARK  106  A    between atoms: _260  and  _262
REMARK  107  A    between atoms: _262  and  _263
REMARK  108  A    between atoms: _265  and  _267
REMARK  109  A    between atoms: _267  and  _268
REMARK  110  A    between atoms: _267  and  _270
REMARK  111  A    between atoms: _270  and  _271
REMARK  112  A    between atoms: _271  and  _272
REMARK  113  A    between atoms: _272  and  _273
REMARK  114  A    between atoms: _282  and  _284
REMARK  115  A    between atoms: _284  and  _285
REMARK  116  A    between atoms: _284  and  _287
REMARK  117  A    between atoms: _287  and  _288
REMARK  118  A    between atoms: _293  and  _295
REMARK  119  A    between atoms: _295  and  _296
REMARK  120  A    between atoms: _295  and  _298
REMARK  121  A    between atoms: _298  and  _299
REMARK  122  A    between atoms: _299  and  _300
REMARK  123  A    between atoms: _300  and  _301
REMARK  124  A    between atoms: _310  and  _312
REMARK  125  A    between atoms: _312  and  _313
REMARK  126  A    between atoms: _312  and  _315
REMARK  127  A    between atoms: _315  and  _316
REMARK  128  A    between atoms: _319  and  _321
REMARK  129  A    between atoms: _321  and  _322
REMARK  130  A    between atoms: _321  and  _324
REMARK  131  A    between atoms: _324  and  _325
REMARK  132  A    between atoms: _328  and  _330
REMARK  133  A    between atoms: _330  and  _331
REMARK  134  A    between atoms: _330  and  _333
REMARK  135  A    between atoms: _333  and  _334
REMARK  136  A    between atoms: _337  and  _339
REMARK  137  A    between atoms: _339  and  _340
REMARK  138  A    between atoms: _339  and  _342
REMARK  139  A    between atoms: _342  and  _343
REMARK  140  A    between atoms: _346  and  _348
REMARK  141  A    between atoms: _348  and  _349
REMARK  142  A    between atoms: _351  and  _353
REMARK  143  A    between atoms: _353  and  _354
REMARK  144  A    between atoms: _357  and  _359
REMARK  145  A    between atoms: _359  and  _360
REMARK  146  A    between atoms: _359  and  _362
REMARK  147  A    between atoms: _362  and  _363
REMARK  148  A    between atoms: _366  and  _368
REMARK  149  A    between atoms: _368  and  _369
REMARK  150  A    between atoms: _368  and  _371
REMARK  151  A    between atoms: _371  and  _372
REMARK  152  A    between atoms: _375  and  _377
REMARK  153  A    between atoms: _377  and  _378
REMARK  154  A    between atoms: _377  and  _380
REMARK  155  A    between atoms: _380  and  _381
REMARK  156  A    between atoms: _384  and  _386
REMARK  157  A    between atoms: _386  and  _387
REMARK  158  A    between atoms: _386  and  _389
REMARK  159  A    between atoms: _392  and  _394
REMARK  160  A    between atoms: _394  and  _395
REMARK  161  A    between atoms: _394  and  _397
REMARK  162  A    between atoms: _397  and  _398
REMARK  163  A    between atoms: _401  and  _403
REMARK  164  A    between atoms: _403  and  _404
REMARK  165  A    between atoms: _403  and  _406
REMARK  166  A    between atoms: _406  and  _407
REMARK  167  A    between atoms: _407  and  _408
REMARK  168  A    between atoms: _410  and  _412
REMARK  169  A    between atoms: _412  and  _413
REMARK  170  A    between atoms: _412  and  _415
REMARK  171  A    between atoms: _415  and  _416
REMARK  172  A    between atoms: _419  and  _421
REMARK  173  A    between atoms: _421  and  _422
REMARK  174  A    between atoms: _424  and  _426
REMARK  175  A    between atoms: _426  and  _427
REMARK  176  A    between atoms: _429  and  _431
REMARK  177  A    between atoms: _431  and  _432
REMARK  178  A    between atoms: _431  and  _434
REMARK  179  A    between atoms: _434  and  _435
REMARK  180  A    between atoms: _438  and  _440
REMARK  181  A    between atoms: _440  and  _441
REMARK  182  A    between atoms: _443  and  _445
REMARK  183  A    between atoms: _445  and  _446
REMARK  184  A    between atoms: _448  and  _450
REMARK  185  A    between atoms: _450  and  _451
REMARK  186  A    between atoms: _450  and  _453
REMARK  187  A    between atoms: _453  and  _454
REMARK  188  A    between atoms: _460  and  _462
REMARK  189  A    between atoms: _462  and  _463
REMARK  190  A    between atoms: _462  and  _465
REMARK  191  A    between atoms: _465  and  _466
REMARK  192  A    between atoms: _469  and  _471
REMARK  193  A    between atoms: _471  and  _472
REMARK  194  A    between atoms: _471  and  _474
REMARK  195  A    between atoms: _477  and  _479
REMARK  196  A    between atoms: _479  and  _480
REMARK  197  A    between atoms: _479  and  _482
REMARK  198  A    between atoms: _482  and  _483
REMARK  199  A    between atoms: _487  and  _488
REMARK  200  A    between atoms: _493  and  _495
REMARK  201  A    between atoms: _495  and  _496
REMARK  202  A    between atoms: _495  and  _498
REMARK  203  A    between atoms: _498  and  _499
REMARK  204  A    between atoms: _505  and  _506
REMARK  205  A    between atoms: _511  and  _513
REMARK  206  A    between atoms: _513  and  _514
REMARK  207  A    between atoms: _513  and  _516
REMARK  208  A    between atoms: _519  and  _521
REMARK  209  A    between atoms: _521  and  _522
REMARK  210  A    between atoms: _521  and  _524
REMARK  211  A    between atoms: _524  and  _525
REMARK  212  A    between atoms: _530  and  _532
REMARK  213  A    between atoms: _532  and  _533
REMARK  214  A    between atoms: _532  and  _535
REMARK  215  A    between atoms: _535  and  _536
REMARK  216  A    between atoms: _539  and  _541
REMARK  217  A    between atoms: _541  and  _542
REMARK  218  A    between atoms: _541  and  _544
REMARK  219  A    between atoms: _544  and  _545
REMARK  220  A    between atoms: _548  and  _550
REMARK  221  A    between atoms: _550  and  _551
REMARK  222  A    between atoms: _553  and  _555
REMARK  223  A    between atoms: _555  and  _556
REMARK  224  A    between atoms: _555  and  _558
REMARK  225  A    between atoms: _558  and  _559
REMARK  226  A    between atoms: _559  and  _560
REMARK  227  A    between atoms: _560  and  _561
REMARK  228  A    between atoms: _570  and  _572
REMARK  229  A    between atoms: _572  and  _573
REMARK  230  A    between atoms: _572  and  _575
REMARK  231  A    between atoms: _575  and  _576
REMARK                            x       y       z     vdW  Elec       q    Type
REMARK                         _______ _______ _______ _____ _____    ______ ____
ROOT
ATOM      1  CA  LEU A   1      33.111   1.513  20.798  0.00  0.00    +0.133 C 
ENDROOT
BRANCH   1   2
ATOM      2  N   LEU A   1      33.395   2.399  19.678  0.00  0.00    -0.239 NA
ATOM      3  H   LEU A   1      32.680   2.509  18.931  0.00  0.00    +0.142 HD
ENDBRANCH   1   2
BRANCH   1   4
ATOM      4  C   LEU A   1      33.321   0.080  20.347  0.00  0.00    +0.224 C 
ATOM      5  O   LEU A   1      32.980  -0.266  19.217  0.00  0.00    -0.287 OA
ENDBRANCH   1   4
BRANCH   1   6
ATOM      6  CB  LEU A   1      31.666   1.696  21.265  0.00  0.00    +0.025 C 
BRANCH   6   7
ATOM      7  CG  LEU A   1      31.266   3.151  21.523  0.00  0.00    +0.002 C 
ATOM      8  CD2 LEU A   1      32.169   3.795  22.554  0.00  0.00    +0.000 C 
ATOM      9  CD1 LEU A   1      29.813   3.227  21.957  0.00  0.00    +0.000 C 
ENDBRANCH   6   7
ENDBRANCH   1   6
TORSDOF 4
REMARK  Name = ../refined-set-2016/2fgv/2fgv_pocket.pdb
REMARK  231 active torsions:
REMARK  status: ('A' for Active; 'I' for Inactive)
REMARK    1  A    between atoms: _1  and  _3
REMARK    2  A    between atoms: _3  and  _4
REMARK    3  A    between atoms: _3  and  _6
REMARK    4  A    between atoms: _6  and  _7
REMARK    5  A    between atoms: _7  and  _8
REMARK    6  A    between atoms: _8  and  _9
REMARK    7  A    between atoms: _18  and  _20
REMARK    8  A    between atoms: _20  and  _21
REMARK    9  A    between atoms: _20  and  _23
REMARK   10  A    between atoms: _23  and  _24
REMARK   11  A    between atoms: _27  and  _29
REMARK   12  A    between atoms: _29  and  _30
REMARK   13  A    between atoms: _29  and  _32
REMARK   14  A    between atoms: _32  and  _33
REMARK   15  A    between atoms: _36  and  _38
REMARK   16  A    between atoms: _38  and  _39
REMARK   17  A    between atoms: _38  and  _41
REMARK   18  A    between atoms: _41  and  _42
REMARK   19  A    between atoms: _45  and  _47
REMARK   20  A    between atoms: _47  and  _48
REMARK   21  A    between atoms: _47  and  _50
REMARK   22  A    between atoms: _50  and  _51
REMARK   23  A    between atoms: _54  and  _56
REMARK   24  A    between atoms: _56  and  _57
REMARK   25  A    between atoms: _59  and  _61
REMARK   26  A    between atoms: _61  and  _62
REMARK   27  A    between atoms: _65  and  _67
REMARK   28  A    between atoms: _67  and  _68
REMARK   29  A    between atoms: _67  and  _70
REMARK   30  A    between atoms: _70  and  _71
REMARK   31  A    between atoms: _74  and  _76
REMARK   32  A    between atoms: _76  and  _77
REMARK   33  A    between atoms: _76  and  _79
REMARK   34  A    between atoms: _79  and  _80
REMARK   35  A    between atoms: _83  and  _85
REMARK   36  A    between atoms: _85  and  _86
REMARK   37  A    between atoms: _85  and  _88
REMARK   38  A    between atoms: _88  and  _89
REMARK   39  A    between atoms: _92  and  _94
REMARK   40  A    between atoms: _94  and  _95
REMARK   41  A    between atoms: _94  and  _97
REMARK   42  A    between atoms: _100  and  _102
REMARK   43  A    between atoms: _102  and  _103
REMARK   44  A    between atoms: _102  and  _105
REMARK   45  A    between atoms: _105  and  _106
REMARK   46  A    between atoms: _106  and  _107
REMARK   47  A    between atoms: _107  and  _108
REMARK   48  A    between atoms: _108  and  _109
REMARK   49  A    between atoms: _113  and  _115
REMARK   50  A    between atoms: _115  and  _116
REMARK   51  A    between atoms: _115  and  _118
REMARK   52  A    between atoms: _118  and  _119
REMARK   53  A    between atoms: _119  and  _120
REMARK   54  A    between atoms: _122  and  _124
REMARK   55  A    between atoms: _124  and  _125
REMARK   56  A    between atoms: _124  and  _127
REMARK   57  A    between atoms: _127  and  _128
REMARK   58  A    between atoms: _131  and  _133
REMARK   59  A    between atoms: _133  and  _134
REMARK   60  A    between atoms: _136  and  _138
REMARK   61  A    between atoms: _138  and  _139
REMARK   62  A    between atoms: _141  and  _143
REMARK   63  A    between atoms: _143  and  _144
REMARK   64  A    between atoms: _143  and  _146
REMARK   65  A    between atoms: _146  and  _147
REMARK   66  A    between atoms: _150  and  _152
REMARK   67  A    between atoms: _152  and  _153
REMARK   68  A    between atoms: _155  and  _157
REMARK   69  A    between atoms: _157  and  _158
REMARK   70  A    between atoms: _160  and  _162
REMARK   71  A    between atoms: _162  and  _163
REMARK   72  A    between atoms: _162  and  _165
REMARK   73  A    between atoms: _165  and  _166
REMARK   74  A    between atoms: _172  and  _174
REMARK   75  A    between atoms: _174  and  _175
REMARK   76  A    between atoms: _174  and  _177
REMARK   77  A    between atoms: _177  and  _178
REMARK   78  A    between atoms: _181  and  _183
REMARK   79  A    between atoms: _183  and  _184
REMARK   80  A    between atoms: _183  and  _186
REMARK   81  A    between atoms: _189  and  _191
REMARK   82  A    between atoms: _191  and  _192
REMARK   83  A    between atoms: _191  and  _194
REMARK   84  A    between atoms: _194  and  _195
REMARK   85  A    between atoms: _199  and  _200
REMARK   86  A    between atoms: _205  and  _207
REMARK   87  A    between atoms: _207  and  _208
REMARK   88  A    between atoms: _207  and  _210
REMARK   89  A    between atoms: _210  and  _211
REMARK   90  A    between atoms: _217  and  _218
REMARK   91  A    between atoms: _223  and  _225
REMARK   92  A    between atoms: _225  and  _226
REMARK   93  A    between atoms: _225  and  _228
REMARK   94  A    between atoms: _231  and  _233
REMARK   95  A    between atoms: _233  and  _234
REMARK   96  A    between atoms: _233  and  _236
REMARK   97  A    between atoms: _236  and  _237
REMARK   98  A    between atoms: _242  and  _244
REMARK   99  A    between atoms: _244  and  _245
REMARK  100  A    between atoms: _244  and  _247
REMARK  101  A    between atoms: _247  and  _248
REMARK  102  A    between atoms: _251  and  _253
REMARK  103  A    between atoms: _253  and  _254
REMARK  104  A    between atoms: _253  and  _256
REMARK  105  A    between atoms: _256  and  _257
REMARK  106  A    between atoms: _260  and  _262
REMARK  107  A    between atoms: _262  and  _263
REMARK  108  A    between atoms: _265  and  _267
REMARK  109  A    between atoms: _267  and  _268
REMARK  110  A    between atoms: _267  and  _270
REMARK  111  A    between atoms: _270  and  _271
REMARK  112  A    between atoms: _271  and  _272
REMARK  113  A    between atoms: _272  and  _273
REMARK  114  A    between atoms: _282  and  _284
REMARK  115  A    between atoms: _284  and  _285
REMARK  116  A    between atoms: _284  and  _287
REMARK  117  A    between atoms: _287  and  _288
REMARK  118  A    between atoms: _293  and  _295
REMARK  119  A    between atoms: _295  and  _296
REMARK  120  A    between atoms: _295  and  _298
REMARK  121  A    between atoms: _298  and  _299
REMARK  122  A    between atoms: _299  and  _300
REMARK  123  A    between atoms: _300  and  _301
REMARK  124  A    between atoms: _310  and  _312
REMARK  125  A    between atoms: _312  and  _313
REMARK  126  A    between atoms: _312  and  _315
REMARK  127  A    between atoms: _315  and  _316
REMARK  128  A    between atoms: _319  and  _321
REMARK  129  A    between atoms: _321  and  _322
REMARK  130  A    between atoms: _321  and  _324
REMARK  131  A    between atoms: _324  and  _325
REMARK  132  A    between atoms: _328  and  _330
REMARK  133  A    between atoms: _330  and  _331
REMARK  134  A    between atoms: _330  and  _333
REMARK  135  A    between atoms: _333  and  _334
REMARK  136  A    between atoms: _337  and  _339
REMARK  137  A    between atoms: _339  and  _340
REMARK  138  A    between atoms: _339  and  _342
REMARK  139  A    between atoms: _342  and  _343
REMARK  140  A    between atoms: _346  and  _348
REMARK  141  A    between atoms: _348  and  _349
REMARK  142  A    between atoms: _351  and  _353
REMARK  143  A    between atoms: _353  and  _354
REMARK  144  A    between atoms: _357  and  _359
REMARK  145  A    between atoms: _359  and  _360
REMARK  146  A    between atoms: _359  and  _362
REMARK  147  A    between atoms: _362  and  _363
REMARK  148  A    between atoms: _366  and  _368
REMARK  149  A    between atoms: _368  and  _369
REMARK  150  A    between atoms: _368  and  _371
REMARK  151  A    between atoms: _371  and  _372
REMARK  152  A    between atoms: _375  and  _377
REMARK  153  A    between atoms: _377  and  _378
REMARK  154  A    between atoms: _377  and  _380
REMARK  155  A    between atoms: _380  and  _381
REMARK  156  A    between atoms: _384  and  _386
REMARK  157  A    between atoms: _386  and  _387
REMARK  158  A    between atoms: _386  and  _389
REMARK  159  A    between atoms: _392  and  _394
REMARK  160  A    between atoms: _394  and  _395
REMARK  161  A    between atoms: _394  and  _397
REMARK  162  A    between atoms: _397  and  _398
REMARK  163  A    between atoms: _401  and  _403
REMARK  164  A    between atoms: _403  and  _404
REMARK  165  A    between atoms: _403  and  _406
REMARK  166  A    between atoms: _406  and  _407
REMARK  167  A    between atoms: _407  and  _408
REMARK  168  A    between atoms: _410  and  _412
REMARK  169  A    between atoms: _412  and  _413
REMARK  170  A    between atoms: _412  and  _415
REMARK  171  A    between atoms: _415  and  _416
REMARK  172  A    between atoms: _419  and  _421
REMARK  173  A    between atoms: _421  and  _422
REMARK  174  A    between atoms: _424  and  _426
REMARK  175  A    between atoms: _426  and  _427
REMARK  176  A    between atoms: _429  and  _431
REMARK  177  A    between atoms: _431  and  _432
REMARK  178  A    between atoms: _431  and  _434
REMARK  179  A    between atoms: _434  and  _435
REMARK  180  A    between atoms: _438  and  _440
REMARK  181  A    between atoms: _440  and  _441
REMARK  182  A    between atoms: _443  and  _445
REMARK  183  A    between atoms: _445  and  _446
REMARK  184  A    between atoms: _448  and  _450
REMARK  185  A    between atoms: _450  and  _451
REMARK  186  A    between atoms: _450  and  _453
REMARK  187  A    between atoms: _453  and  _454
REMARK  188  A    between atoms: _460  and  _462
REMARK  189  A    between atoms: _462  and  _463
REMARK  190  A    between atoms: _462  and  _465
REMARK  191  A    between atoms: _465  and  _466
REMARK  192  A    between atoms: _469  and  _471
REMARK  193  A    between atoms: _471  and  _472
REMARK  194  A    between atoms: _471  and  _474
REMARK  195  A    between atoms: _477  and  _479
REMARK  196  A    between atoms: _479  and  _480
REMARK  197  A    between atoms: _479  and  _482
REMARK  198  A    between atoms: _482  and  _483
REMARK  199  A    between atoms: _487  and  _488
REMARK  200  A    between atoms: _493  and  _495
REMARK  201  A    between atoms: _495  and  _496
REMARK  202  A    between atoms: _495  and  _498
REMARK  203  A    between atoms: _498  and  _499
REMARK  204  A    between atoms: _505  and  _506
REMARK  205  A    between atoms: _511  and  _513
REMARK  206  A    between atoms: _513  and  _514
REMARK  207  A    between atoms: _513  and  _516
REMARK  208  A    between atoms: _519  and  _521
REMARK  209  A    between atoms: _521  and  _522
REMARK  210  A    between atoms: _521  and  _524
REMARK  211  A    between atoms: _524  and  _525
REMARK  212  A    between atoms: _530  and  _532
REMARK  213  A    between atoms: _532  and  _533
REMARK  214  A    between atoms: _532  and  _535
REMARK  215  A    between atoms: _535  and  _536
REMARK  216  A    between atoms: _539  and  _541
REMARK  217  A    between atoms: _541  and  _542
REMARK  218  A    between atoms: _541  and  _544
REMARK  219  A    between atoms: _544  and  _545
REMARK  220  A    between atoms: _548  and  _550
REMARK  221  A    between atoms: _550  and  _551
REMARK  222  A    between atoms: _553  and  _555
REMARK  223  A    between atoms: _555  and  _556
REMARK  224  A    between atoms: _555  and  _558
REMARK  225  A    between atoms: _558  and  _559
REMARK  226  A    between atoms: _559  and  _560
REMARK  227  A    between atoms: _560  and  _561
REMARK  228  A    between atoms: _570  and  _572
REMARK  229  A    between atoms: _572  and  _573
REMARK  230  A    between atoms: _572  and  _575
REMARK  231  A    between atoms: _575  and  _576
REMARK                            x       y       z     vdW  Elec       q    Type
REMARK                         _______ _______ _______ _____ _____    ______ ____
ROOT
ATOM      1  CA  ILE A   6      28.071  -0.802  12.920  0.00  0.00    +0.149 C 
ENDROOT
BRANCH   1   3
ATOM      2  C   ASN A   5      29.266  -2.866  12.409  0.00  0.00    +0.241 C 
ATOM      3  N   ILE A   6      29.058  -1.837  13.225  0.00  0.00    -0.297 N 
ATOM      4  H   ILE A   6      29.611  -1.766  14.103  0.00  0.00    +0.150 HD
ATOM      5  O   ASN A   5      28.706  -2.983  11.319  0.00  0.00    -0.273 OA
BRANCH   2   6
ATOM      6  CA  ASN A   5      30.237  -3.940  12.874  0.00  0.00    +0.158 C 
BRANCH   6   9
ATOM      7  C   VAL A   4      28.612  -5.657  13.421  0.00  0.00    +0.241 C 
ATOM      8  O   VAL A   4      28.253  -5.037  14.422  0.00  0.00    -0.273 OA
ATOM      9  N   ASN A   5      29.583  -5.219  12.625  0.00  0.00    -0.297 N 
ATOM     10  H   ASN A   5      29.880  -5.797  11.813  0.00  0.00    +0.150 HD
BRANCH   7  11
ATOM     11  CA  VAL A   4      27.906  -6.959  13.029  0.00  0.00    +0.149 C 
BRANCH  11  13
ATOM     12  C   PRO A   3      27.688  -9.099  14.222  0.00  0.00    +0.241 C 
ATOM     13  N   VAL A   4      27.667  -7.767  14.222  0.00  0.00    -0.297 N 
ATOM     14  H   VAL A   4      27.470  -7.277  15.118  0.00  0.00    +0.150 HD
ATOM     15  O   PRO A   3      28.058  -9.775  13.253  0.00  0.00    -0.273 OA
BRANCH  12  22
ATOM     16  C   ASN A   2      28.243  -8.558  17.363  0.00  0.00    +0.244 C 
ATOM     17  O   ASN A   2      29.353  -9.006  17.083  0.00  0.00    -0.273 OA
ATOM     18  N   PRO A   3      27.127  -8.938  16.706  0.00  0.00    -0.272 N 
ATOM     19  CD  PRO A   3      25.711  -8.698  17.047  0.00  0.00    +0.094 C 
ATOM     20  CG  PRO A   3      24.963  -9.231  15.863  0.00  0.00    +0.024 C 
ATOM     21  CB  PRO A   3      25.817 -10.312  15.325  0.00  0.00    +0.031 C 
ATOM     22  CA  PRO A   3      27.243  -9.784  15.511  0.00  0.00    +0.152 C 
BRANCH  16  23
ATOM     23  CA  ASN A   2      28.124  -7.591  18.545  0.00  0.00    +0.158 C 
BRANCH  23  26
ATOM     24  C   PRO A   1      28.842  -7.685  20.888  0.00  0.00    +0.239 C 
ATOM     25  O   PRO A   1      27.878  -7.032  21.292  0.00  0.00    -0.274 OA
ATOM     26  N   ASN A   2      28.948  -8.116  19.632  0.00  0.00    -0.297 N 
ATOM     27  H   ASN A   2      29.646  -8.856  19.416  0.00  0.00    +0.150 HD
BRANCH  24  32
ATOM     28  N   PRO A   1      30.650  -6.878  22.439  0.00  0.00    -0.210 NA
ATOM     29  CD  PRO A   1      30.439  -6.786  23.895  0.00  0.00    +0.089 C 
ATOM     30  CG  PRO A   1      29.509  -7.909  24.191  0.00  0.00    +0.021 C 
ATOM     31  CB  PRO A   1      29.517  -8.852  23.042  0.00  0.00    +0.028 C 
ATOM     32  CA  PRO A   1      29.996  -8.042  21.835  0.00  0.00    +0.149 C 
ENDBRANCH  24  32
ENDBRANCH  23  26
BRANCH  23  33
ATOM     33  CB  ASN A   2      28.679  -6.208  18.185  0.00  0.00    +0.114 C 
BRANCH  33  34
ATOM     34  CG  ASN A   2      27.830  -5.443  17.193  0.00  0.00    +0.222 C 
ATOM     35  ND2 ASN A   2      28.058  -4.132  17.132  0.00  0.00    -0.329 N 
ATOM     36 HD21 ASN A   2      28.782  -3.701  17.742  0.00  0.00    +0.145 HD
ATOM     37 HD22 ASN A   2      27.512  -3.539  16.475  0.00  0.00    +0.145 HD
ATOM     38  OD1 ASN A   2      26.985  -5.998  16.493  0.00  0.00    -0.275 OA
ENDBRANCH  33  34
ENDBRANCH  23  33
ENDBRANCH  16  23
ENDBRANCH  12  22
ENDBRANCH  11  13
BRANCH  11  39
ATOM     39  CB  VAL A   4      26.559  -6.609  12.351  0.00  0.00    +0.027 C 
ATOM     40  CG2 VAL A   4      25.853  -7.876  11.872  0.00  0.00    +0.002 C 
ATOM     41  CG1 VAL A   4      26.751  -5.621  11.205  0.00  0.00    +0.002 C 
ENDBRANCH  11  39
ENDBRANCH   7  11
ENDBRANCH   6   9
BRANCH   6  42
ATOM     42  CB  ASN A   5      31.534  -3.849  12.076  0.00  0.00    +0.114 C 
BRANCH  42  43
ATOM     43  CG  ASN A   5      32.571  -4.851  12.538  0.00  0.00    +0.222 C 
ATOM     44  OD1 ASN A   5      32.821  -4.993  13.734  0.00  0.00    -0.275 OA
ATOM     45  ND2 ASN A   5      33.169  -5.561  11.590  0.00  0.00    -0.329 N 
ATOM     46 HD21 ASN A   5      33.882  -6.273  11.846  0.00  0.00    +0.145 HD
ATOM     47 HD22 ASN A   5      32.924  -5.405  10.591  0.00  0.00    +0.145 HD
ENDBRANCH  42  43
ENDBRANCH   6  42
ENDBRANCH   2   6
ENDBRANCH   1   3
BRANCH   1  48
ATOM     48  C   ILE A   6      28.720   0.578  12.903  0.00  0.00    +0.241 C 
ATOM     49  O   ILE A   6      29.298   1.007  13.900  0.00  0.00    -0.273 OA
ATOM     50  N   ILE A   7      28.598   1.269  11.772  0.00  0.00    -0.297 N 
ATOM     51  H   ILE A   7      28.156   0.811  10.950  0.00  0.00    +0.150 HD
BRANCH  50  52
ATOM     52  CA  ILE A   7      29.063   2.648  11.644  0.00  0.00    +0.149 C 
BRANCH  52  53
ATOM     53  C   ILE A   7      27.847   3.526  11.920  0.00  0.00    +0.241 C 
ATOM     54  N   GLY A   8      27.903   4.299  13.003  0.00  0.00    -0.295 N 
ATOM     55  H   GLY A   8      28.780   4.316  13.562  0.00  0.00    +0.150 HD
ATOM     56  O   ILE A   7      26.871   3.480  11.173  0.00  0.00    -0.273 OA
BRANCH  54  57
ATOM     57  CA  GLY A   8      26.779   5.122  13.432  0.00  0.00    +0.176 C 
BRANCH  57  58
ATOM     58  C   GLY A   8      26.921   6.575  13.030  0.00  0.00    +0.243 C 
ATOM     59  N   ARG A   9      25.971   7.398  13.464  0.00  0.00    -0.297 N 
ATOM     60  H   ARG A   9      25.262   7.052  14.142  0.00  0.00    +0.150 HD
ATOM     61  O   GLY A   8      27.872   6.958  12.342  0.00  0.00    -0.273 OA
BRANCH  59  62
ATOM     62  CA  ARG A   9      25.911   8.781  13.001  0.00  0.00    +0.149 C 
BRANCH  62  63
ATOM     63  C   ARG A   9      27.155   9.592  13.334  0.00  0.00    +0.241 C 
ATOM     64  N   ASN A  10      27.835   9.261  14.424  0.00  0.00    -0.298 N 
ATOM     65  H   ASN A  10      27.533   8.464  15.020  0.00  0.00    +0.150 HD
ATOM     66  O   ARG A   9      27.497  10.521  12.605  0.00  0.00    -0.273 OA
BRANCH  64  67
ATOM     67  CA  ASN A  10      29.018  10.046  14.764  0.00  0.00    +0.146 C 
BRANCH  67  68
ATOM     68  C   ASN A  10      30.066  10.046  13.650  0.00  0.00    +0.227 C 
ATOM     69  O   ASN A  10      30.758  11.058  13.455  0.00  0.00    -0.286 OA
ENDBRANCH  67  68
BRANCH  67  70
ATOM     70  CB  ASN A  10      29.641   9.604  16.084  0.00  0.00    +0.112 C 
BRANCH  70  71
ATOM     71  CG  ASN A  10      30.304   8.253  15.988  0.00  0.00    +0.222 C 
ATOM     72  ND2 ASN A  10      31.553   8.177  16.427  0.00  0.00    -0.329 N 
ATOM     73 HD21 ASN A  10      32.029   9.027  16.792  0.00  0.00    +0.145 HD
ATOM     74 HD22 ASN A  10      32.057   7.267  16.407  0.00  0.00    +0.145 HD
ATOM     75  OD1 ASN A  10      29.690   7.280  15.545  0.00  0.00    -0.275 OA
ENDBRANCH  70  71
ENDBRANCH  67  70
ENDBRANCH  64  67
ENDBRANCH  62  63
BRANCH  62  76
ATOM     76  CB  ARG A   9      24.671   9.494  13.540  0.00  0.00    +0.033 C 
BRANCH  76  77
ATOM     77  CG  ARG A   9      23.382   8.951  12.947  0.00  0.00    +0.045 C 
BRANCH  77  78
ATOM     78  CD  ARG A   9      22.122   9.705  13.368  0.00  0.00    +0.174 C 
BRANCH  78  79
ATOM     79  NE  ARG A   9      21.958   9.734  14.819  0.00  0.00    -0.265 N 
ATOM     80  CZ  ARG A   9      22.301  10.739  15.618  0.00  0.00    +0.342 C 
ATOM     81  NH2 ARG A   9      22.107  10.618  16.926  0.00  0.00    -0.292 N 
ATOM     82 HH21 ARG A   9      22.370  11.395  17.565  0.00  0.00    +0.255 HD
ATOM     83 HH22 ARG A   9      21.692   9.746  17.312  0.00  0.00    +0.255 HD
ATOM     84  NH1 ARG A   9      22.829  11.863  15.149  0.00  0.00    -0.292 N 
ATOM     85 HH11 ARG A   9      23.086  12.629  15.803  0.00  0.00    +0.255 HD
ATOM     86 HH12 ARG A   9      22.986  11.977  14.127  0.00  0.00    +0.255 HD
ATOM     87  HE  ARG A   9      21.536   8.895  15.266  0.00  0.00    +0.259 HD
ENDBRANCH  78  79
ENDBRANCH  77  78
ENDBRANCH  76  77
ENDBRANCH  62  76
ENDBRANCH  59  62
ENDBRANCH  57  58
ENDBRANCH  54  57
ENDBRANCH  52  53
BRANCH  52  88
ATOM     88  CB  ILE A   7      29.577   2.958  10.222  0.00  0.00    +0.027 C 
ATOM     89  CG2 ILE A   7      30.069   4.396  10.133  0.00  0.00    +0.002 C 
BRANCH  88  90
ATOM     90  CG1 ILE A   7      30.689   1.990   9.806  0.00  0.00    +0.002 C 
ATOM     91  CD1 ILE A   7      31.929   2.049  10.675  0.00  0.00    +0.000 C 
ENDBRANCH  88  90
ENDBRANCH  52  88
ENDBRANCH  50  52
ENDBRANCH   1  48
BRANCH   1  92
ATOM     92  CB  ILE A   6      26.914  -0.804  13.946  0.00  0.00    +0.027 C 
ATOM     93  CG2 ILE A   6      25.944   0.343  13.681  0.00  0.00    +0.002 C 
BRANCH  92  94
ATOM     94  CG1 ILE A   6      26.171  -2.143  13.899  0.00  0.00    +0.002 C 
ATOM     95  CD1 ILE A   6      25.377  -2.442  15.146  0.00  0.00    +0.000 C 
ENDBRANCH  92  94
ENDBRANCH   1  92
TORSDOF 33
REMARK  Name = ../refined-set-2016/2fgv/2fgv_pocket.pdb
REMARK  231 active torsions:
REMARK  status: ('A' for Active; 'I' for Inactive)
REMARK    1  A    between atoms: _1  and  _3
REMARK    2  A    between atoms: _3  and  _4
REMARK    3  A    between atoms: _3  and  _6
REMARK    4  A    between atoms: _6  and  _7
REMARK    5  A    between atoms: _7  and  _8
REMARK    6  A    between atoms: _8  and  _9
REMARK    7  A    between atoms: _18  and  _20
REMARK    8  A    between atoms: _20  and  _21
REMARK    9  A    between atoms: _20  and  _23
REMARK   10  A    between atoms: _23  and  _24
REMARK   11  A    between atoms: _27  and  _29
REMARK   12  A    between atoms: _29  and  _30
REMARK   13  A    between atoms: _29  and  _32
REMARK   14  A    between atoms: _32  and  _33
REMARK   15  A    between atoms: _36  and  _38
REMARK   16  A    between atoms: _38  and  _39
REMARK   17  A    between atoms: _38  and  _41
REMARK   18  A    between atoms: _41  and  _42
REMARK   19  A    between atoms: _45  and  _47
REMARK   20  A    between atoms: _47  and  _48
REMARK   21  A    between atoms: _47  and  _50
REMARK   22  A    between atoms: _50  and  _51
REMARK   23  A    between atoms: _54  and  _56
REMARK   24  A    between atoms: _56  and  _57
REMARK   25  A    between atoms: _59  and  _61
REMARK   26  A    between atoms: _61  and  _62
REMARK   27  A    between atoms: _65  and  _67
REMARK   28  A    between atoms: _67  and  _68
REMARK   29  A    between atoms: _67  and  _70
REMARK   30  A    between atoms: _70  and  _71
REMARK   31  A    between atoms: _74  and  _76
REMARK   32  A    between atoms: _76  and  _77
REMARK   33  A    between atoms: _76  and  _79
REMARK   34  A    between atoms: _79  and  _80
REMARK   35  A    between atoms: _83  and  _85
REMARK   36  A    between atoms: _85  and  _86
REMARK   37  A    between atoms: _85  and  _88
REMARK   38  A    between atoms: _88  and  _89
REMARK   39  A    between atoms: _92  and  _94
REMARK   40  A    between atoms: _94  and  _95
REMARK   41  A    between atoms: _94  and  _97
REMARK   42  A    between atoms: _100  and  _102
REMARK   43  A    between atoms: _102  and  _103
REMARK   44  A    between atoms: _102  and  _105
REMARK   45  A    between atoms: _105  and  _106
REMARK   46  A    between atoms: _106  and  _107
REMARK   47  A    between atoms: _107  and  _108
REMARK   48  A    between atoms: _108  and  _109
REMARK   49  A    between atoms: _113  and  _115
REMARK   50  A    between atoms: _115  and  _116
REMARK   51  A    between atoms: _115  and  _118
REMARK   52  A    between atoms: _118  and  _119
REMARK   53  A    between atoms: _119  and  _120
REMARK   54  A    between atoms: _122  and  _124
REMARK   55  A    between atoms: _124  and  _125
REMARK   56  A    between atoms: _124  and  _127
REMARK   57  A    between atoms: _127  and  _128
REMARK   58  A    between atoms: _131  and  _133
REMARK   59  A    between atoms: _133  and  _134
REMARK   60  A    between atoms: _136  and  _138
REMARK   61  A    between atoms: _138  and  _139
REMARK   62  A    between atoms: _141  and  _143
REMARK   63  A    between atoms: _143  and  _144
REMARK   64  A    between atoms: _143  and  _146
REMARK   65  A    between atoms: _146  and  _147
REMARK   66  A    between atoms: _150  and  _152
REMARK   67  A    between atoms: _152  and  _153
REMARK   68  A    between atoms: _155  and  _157
REMARK   69  A    between atoms: _157  and  _158
REMARK   70  A    between atoms: _160  and  _162
REMARK   71  A    between atoms: _162  and  _163
REMARK   72  A    between atoms: _162  and  _165
REMARK   73  A    between atoms: _165  and  _166
REMARK   74  A    between atoms: _172  and  _174
REMARK   75  A    between atoms: _174  and  _175
REMARK   76  A    between atoms: _174  and  _177
REMARK   77  A    between atoms: _177  and  _178
REMARK   78  A    between atoms: _181  and  _183
REMARK   79  A    between atoms: _183  and  _184
REMARK   80  A    between atoms: _183  and  _186
REMARK   81  A    between atoms: _189  and  _191
REMARK   82  A    between atoms: _191  and  _192
REMARK   83  A    between atoms: _191  and  _194
REMARK   84  A    between atoms: _194  and  _195
REMARK   85  A    between atoms: _199  and  _200
REMARK   86  A    between atoms: _205  and  _207
REMARK   87  A    between atoms: _207  and  _208
REMARK   88  A    between atoms: _207  and  _210
REMARK   89  A    between atoms: _210  and  _211
REMARK   90  A    between atoms: _217  and  _218
REMARK   91  A    between atoms: _223  and  _225
REMARK   92  A    between atoms: _225  and  _226
REMARK   93  A    between atoms: _225  and  _228
REMARK   94  A    between atoms: _231  and  _233
REMARK   95  A    between atoms: _233  and  _234
REMARK   96  A    between atoms: _233  and  _236
REMARK   97  A    between atoms: _236  and  _237
REMARK   98  A    between atoms: _242  and  _244
REMARK   99  A    between atoms: _244  and  _245
REMARK  100  A    between atoms: _244  and  _247
REMARK  101  A    between atoms: _247  and  _248
REMARK  102  A    between atoms: _251  and  _253
REMARK  103  A    between atoms: _253  and  _254
REMARK  104  A    between atoms: _253  and  _256
REMARK  105  A    between atoms: _256  and  _257
REMARK  106  A    between atoms: _260  and  _262
REMARK  107  A    between atoms: _262  and  _263
REMARK  108  A    between atoms: _265  and  _267
REMARK  109  A    between atoms: _267  and  _268
REMARK  110  A    between atoms: _267  and  _270
REMARK  111  A    between atoms: _270  and  _271
REMARK  112  A    between atoms: _271  and  _272
REMARK  113  A    between atoms: _272  and  _273
REMARK  114  A    between atoms: _282  and  _284
REMARK  115  A    between atoms: _284  and  _285
REMARK  116  A    between atoms: _284  and  _287
REMARK  117  A    between atoms: _287  and  _288
REMARK  118  A    between atoms: _293  and  _295
REMARK  119  A    between atoms: _295  and  _296
REMARK  120  A    between atoms: _295  and  _298
REMARK  121  A    between atoms: _298  and  _299
REMARK  122  A    between atoms: _299  and  _300
REMARK  123  A    between atoms: _300  and  _301
REMARK  124  A    between atoms: _310  and  _312
REMARK  125  A    between atoms: _312  and  _313
REMARK  126  A    between atoms: _312  and  _315
REMARK  127  A    between atoms: _315  and  _316
REMARK  128  A    between atoms: _319  and  _321
REMARK  129  A    between atoms: _321  and  _322
REMARK  130  A    between atoms: _321  and  _324
REMARK  131  A    between atoms: _324  and  _325
REMARK  132  A    between atoms: _328  and  _330
REMARK  133  A    between atoms: _330  and  _331
REMARK  134  A    between atoms: _330  and  _333
REMARK  135  A    between atoms: _333  and  _334
REMARK  136  A    between atoms: _337  and  _339
REMARK  137  A    between atoms: _339  and  _340
REMARK  138  A    between atoms: _339  and  _342
REMARK  139  A    between atoms: _342  and  _343
REMARK  140  A    between atoms: _346  and  _348
REMARK  141  A    between atoms: _348  and  _349
REMARK  142  A    between atoms: _351  and  _353
REMARK  143  A    between atoms: _353  and  _354
REMARK  144  A    between atoms: _357  and  _359
REMARK  145  A    between atoms: _359  and  _360
REMARK  146  A    between atoms: _359  and  _362
REMARK  147  A    between atoms: _362  and  _363
REMARK  148  A    between atoms: _366  and  _368
REMARK  149  A    between atoms: _368  and  _369
REMARK  150  A    between atoms: _368  and  _371
REMARK  151  A    between atoms: _371  and  _372
REMARK  152  A    between atoms: _375  and  _377
REMARK  153  A    between atoms: _377  and  _378
REMARK  154  A    between atoms: _377  and  _380
REMARK  155  A    between atoms: _380  and  _381
REMARK  156  A    between atoms: _384  and  _386
REMARK  157  A    between atoms: _386  and  _387
REMARK  158  A    between atoms: _386  and  _389
REMARK  159  A    between atoms: _392  and  _394
REMARK  160  A    between atoms: _394  and  _395
REMARK  161  A    between atoms: _394  and  _397
REMARK  162  A    between atoms: _397  and  _398
REMARK  163  A    between atoms: _401  and  _403
REMARK  164  A    between atoms: _403  and  _404
REMARK  165  A    between atoms: _403  and  _406
REMARK  166  A    between atoms: _406  and  _407
REMARK  167  A    between atoms: _407  and  _408
REMARK  168  A    between atoms: _410  and  _412
REMARK  169  A    between atoms: _412  and  _413
REMARK  170  A    between atoms: _412  and  _415
REMARK  171  A    between atoms: _415  and  _416
REMARK  172  A    between atoms: _419  and  _421
REMARK  173  A    between atoms: _421  and  _422
REMARK  174  A    between atoms: _424  and  _426
REMARK  175  A    between atoms: _426  and  _427
REMARK  176  A    between atoms: _429  and  _431
REMARK  177  A    between atoms: _431  and  _432
REMARK  178  A    between atoms: _431  and  _434
REMARK  179  A    between atoms: _434  and  _435
REMARK  180  A    between atoms: _438  and  _440
REMARK  181  A    between atoms: _440  and  _441
REMARK  182  A    between atoms: _443  and  _445
REMARK  183  A    between atoms: _445  and  _446
REMARK  184  A    between atoms: _448  and  _450
REMARK  185  A    between atoms: _450  and  _451
REMARK  186  A    between atoms: _450  and  _453
REMARK  187  A    between atoms: _453  and  _454
REMARK  188  A    between atoms: _460  and  _462
REMARK  189  A    between atoms: _462  and  _463
REMARK  190  A    between atoms: _462  and  _465
REMARK  191  A    between atoms: _465  and  _466
REMARK  192  A    between atoms: _469  and  _471
REMARK  193  A    between atoms: _471  and  _472
REMARK  194  A    between atoms: _471  and  _474
REMARK  195  A    between atoms: _477  and  _479
REMARK  196  A    between atoms: _479  and  _480
REMARK  197  A    between atoms: _479  and  _482
REMARK  198  A    between atoms: _482  and  _483
REMARK  199  A    between atoms: _487  and  _488
REMARK  200  A    between atoms: _493  and  _495
REMARK  201  A    between atoms: _495  and  _496
REMARK  202  A    between atoms: _495  and  _498
REMARK  203  A    between atoms: _498  and  _499
REMARK  204  A    between atoms: _505  and  _506
REMARK  205  A    between atoms: _511  and  _513
REMARK  206  A    between atoms: _513  and  _514
REMARK  207  A    between atoms: _513  and  _516
REMARK  208  A    between atoms: _519  and  _521
REMARK  209  A    between atoms: _521  and  _522
REMARK  210  A    between atoms: _521  and  _524
REMARK  211  A    between atoms: _524  and  _525
REMARK  212  A    between atoms: _530  and  _532
REMARK  213  A    between atoms: _532  and  _533
REMARK  214  A    between atoms: _532  and  _535
REMARK  215  A    between atoms: _535  and  _536
REMARK  216  A    between atoms: _539  and  _541
REMARK  217  A    between atoms: _541  and  _542
REMARK  218  A    between atoms: _541  and  _544
REMARK  219  A    between atoms: _544  and  _545
REMARK  220  A    between atoms: _548  and  _550
REMARK  221  A    between atoms: _550  and  _551
REMARK  222  A    between atoms: _553  and  _555
REMARK  223  A    between atoms: _555  and  _556
REMARK  224  A    between atoms: _555  and  _558
REMARK  225  A    between atoms: _558  and  _559
REMARK  226  A    between atoms: _559  and  _560
REMARK  227  A    between atoms: _560  and  _561
REMARK  228  A    between atoms: _570  and  _572
REMARK  229  A    between atoms: _572  and  _573
REMARK  230  A    between atoms: _572  and  _575
REMARK  231  A    between atoms: _575  and  _576
REMARK                            x       y       z     vdW  Elec       q    Type
REMARK                         _______ _______ _______ _____ _____    ______ ____
ROOT
ATOM      1  O   HOH     1      14.637  -6.285   5.321  0.00  0.00    +0.000 OA
ENDROOT
TORSDOF 0
REMARK  Name = ../refined-set-2016/2fgv/2fgv_pocket.pdb
REMARK  231 active torsions:
REMARK  status: ('A' for Active; 'I' for Inactive)
REMARK    1  A    between atoms: _1  and  _3
REMARK    2  A    between atoms: _3  and  _4
REMARK    3  A    between atoms: _3  and  _6
REMARK    4  A    between atoms: _6  and  _7
REMARK    5  A    between atoms: _7  and  _8
REMARK    6  A    between atoms: _8  and  _9
REMARK    7  A    between atoms: _18  and  _20
REMARK    8  A    between atoms: _20  and  _21
REMARK    9  A    between atoms: _20  and  _23
REMARK   10  A    between atoms: _23  and  _24
REMARK   11  A    between atoms: _27  and  _29
REMARK   12  A    between atoms: _29  and  _30
REMARK   13  A    between atoms: _29  and  _32
REMARK   14  A    between atoms: _32  and  _33
REMARK   15  A    between atoms: _36  and  _38
REMARK   16  A    between atoms: _38  and  _39
REMARK   17  A    between atoms: _38  and  _41
REMARK   18  A    between atoms: _41  and  _42
REMARK   19  A    between atoms: _45  and  _47
REMARK   20  A    between atoms: _47  and  _48
REMARK   21  A    between atoms: _47  and  _50
REMARK   22  A    between atoms: _50  and  _51
REMARK   23  A    between atoms: _54  and  _56
REMARK   24  A    between atoms: _56  and  _57
REMARK   25  A    between atoms: _59  and  _61
REMARK   26  A    between atoms: _61  and  _62
REMARK   27  A    between atoms: _65  and  _67
REMARK   28  A    between atoms: _67  and  _68
REMARK   29  A    between atoms: _67  and  _70
REMARK   30  A    between atoms: _70  and  _71
REMARK   31  A    between atoms: _74  and  _76
REMARK   32  A    between atoms: _76  and  _77
REMARK   33  A    between atoms: _76  and  _79
REMARK   34  A    between atoms: _79  and  _80
REMARK   35  A    between atoms: _83  and  _85
REMARK   36  A    between atoms: _85  and  _86
REMARK   37  A    between atoms: _85  and  _88
REMARK   38  A    between atoms: _88  and  _89
REMARK   39  A    between atoms: _92  and  _94
REMARK   40  A    between atoms: _94  and  _95
REMARK   41  A    between atoms: _94  and  _97
REMARK   42  A    between atoms: _100  and  _102
REMARK   43  A    between atoms: _102  and  _103
REMARK   44  A    between atoms: _102  and  _105
REMARK   45  A    between atoms: _105  and  _106
REMARK   46  A    between atoms: _106  and  _107
REMARK   47  A    between atoms: _107  and  _108
REMARK   48  A    between atoms: _108  and  _109
REMARK   49  A    between atoms: _113  and  _115
REMARK   50  A    between atoms: _115  and  _116
REMARK   51  A    between atoms: _115  and  _118
REMARK   52  A    between atoms: _118  and  _119
REMARK   53  A    between atoms: _119  and  _120
REMARK   54  A    between atoms: _122  and  _124
REMARK   55  A    between atoms: _124  and  _125
REMARK   56  A    between atoms: _124  and  _127
REMARK   57  A    between atoms: _127  and  _128
REMARK   58  A    between atoms: _131  and  _133
REMARK   59  A    between atoms: _133  and  _134
REMARK   60  A    between atoms: _136  and  _138
REMARK   61  A    between atoms: _138  and  _139
REMARK   62  A    between atoms: _141  and  _143
REMARK   63  A    between atoms: _143  and  _144
REMARK   64  A    between atoms: _143  and  _146
REMARK   65  A    between atoms: _146  and  _147
REMARK   66  A    between atoms: _150  and  _152
REMARK   67  A    between atoms: _152  and  _153
REMARK   68  A    between atoms: _155  and  _157
REMARK   69  A    between atoms: _157  and  _158
REMARK   70  A    between atoms: _160  and  _162
REMARK   71  A    between atoms: _162  and  _163
REMARK   72  A    between atoms: _162  and  _165
REMARK   73  A    between atoms: _165  and  _166
REMARK   74  A    between atoms: _172  and  _174
REMARK   75  A    between atoms: _174  and  _175
REMARK   76  A    between atoms: _174  and  _177
REMARK   77  A    between atoms: _177  and  _178
REMARK   78  A    between atoms: _181  and  _183
REMARK   79  A    between atoms: _183  and  _184
REMARK   80  A    between atoms: _183  and  _186
REMARK   81  A    between atoms: _189  and  _191
REMARK   82  A    between atoms: _191  and  _192
REMARK   83  A    between atoms: _191  and  _194
REMARK   84  A    between atoms: _194  and  _195
REMARK   85  A    between atoms: _199  and  _200
REMARK   86  A    between atoms: _205  and  _207
REMARK   87  A    between atoms: _207  and  _208
REMARK   88  A    between atoms: _207  and  _210
REMARK   89  A    between atoms: _210  and  _211
REMARK   90  A    between atoms: _217  and  _218
REMARK   91  A    between atoms: _223  and  _225
REMARK   92  A    between atoms: _225  and  _226
REMARK   93  A    between atoms: _225  and  _228
REMARK   94  A    between atoms: _231  and  _233
REMARK   95  A    between atoms: _233  and  _234
REMARK   96  A    between atoms: _233  and  _236
REMARK   97  A    between atoms: _236  and  _237
REMARK   98  A    between atoms: _242  and  _244
REMARK   99  A    between atoms: _244  and  _245
REMARK  100  A    between atoms: _244  and  _247
REMARK  101  A    between atoms: _247  and  _248
REMARK  102  A    between atoms: _251  and  _253
REMARK  103  A    between atoms: _253  and  _254
REMARK  104  A    between atoms: _253  and  _256
REMARK  105  A    between atoms: _256  and  _257
REMARK  106  A    between atoms: _260  and  _262
REMARK  107  A    between atoms: _262  and  _263
REMARK  108  A    between atoms: _265  and  _267
REMARK  109  A    between atoms: _267  and  _268
REMARK  110  A    between atoms: _267  and  _270
REMARK  111  A    between atoms: _270  and  _271
REMARK  112  A    between atoms: _271  and  _272
REMARK  113  A    between atoms: _272  and  _273
REMARK  114  A    between atoms: _282  and  _284
REMARK  115  A    between atoms: _284  and  _285
REMARK  116  A    between atoms: _284  and  _287
REMARK  117  A    between atoms: _287  and  _288
REMARK  118  A    between atoms: _293  and  _295
REMARK  119  A    between atoms: _295  and  _296
REMARK  120  A    between atoms: _295  and  _298
REMARK  121  A    between atoms: _298  and  _299
REMARK  122  A    between atoms: _299  and  _300
REMARK  123  A    between atoms: _300  and  _301
REMARK  124  A    between atoms: _310  and  _312
REMARK  125  A    between atoms: _312  and  _313
REMARK  126  A    between atoms: _312  and  _315
REMARK  127  A    between atoms: _315  and  _316
REMARK  128  A    between atoms: _319  and  _321
REMARK  129  A    between atoms: _321  and  _322
REMARK  130  A    between atoms: _321  and  _324
REMARK  131  A    between atoms: _324  and  _325
REMARK  132  A    between atoms: _328  and  _330
REMARK  133  A    between atoms: _330  and  _331
REMARK  134  A    between atoms: _330  and  _333
REMARK  135  A    between atoms: _333  and  _334
REMARK  136  A    between atoms: _337  and  _339
REMARK  137  A    between atoms: _339  and  _340
REMARK  138  A    between atoms: _339  and  _342
REMARK  139  A    between atoms: _342  and  _343
REMARK  140  A    between atoms: _346  and  _348
REMARK  141  A    between atoms: _348  and  _349
REMARK  142  A    between atoms: _351  and  _353
REMARK  143  A    between atoms: _353  and  _354
REMARK  144  A    between atoms: _357  and  _359
REMARK  145  A    between atoms: _359  and  _360
REMARK  146  A    between atoms: _359  and  _362
REMARK  147  A    between atoms: _362  and  _363
REMARK  148  A    between atoms: _366  and  _368
REMARK  149  A    between atoms: _368  and  _369
REMARK  150  A    between atoms: _368  and  _371
REMARK  151  A    between atoms: _371  and  _372
REMARK  152  A    between atoms: _375  and  _377
REMARK  153  A    between atoms: _377  and  _378
REMARK  154  A    between atoms: _377  and  _380
REMARK  155  A    between atoms: _380  and  _381
REMARK  156  A    between atoms: _384  and  _386
REMARK  157  A    between atoms: _386  and  _387
REMARK  158  A    between atoms: _386  and  _389
REMARK  159  A    between atoms: _392  and  _394
REMARK  160  A    between atoms: _394  and  _395
REMARK  161  A    between atoms: _394  and  _397
REMARK  162  A    between atoms: _397  and  _398
REMARK  163  A    between atoms: _401  and  _403
REMARK  164  A    between atoms: _403  and  _404
REMARK  165  A    between atoms: _403  and  _406
REMARK  166  A    between atoms: _406  and  _407
REMARK  167  A    between atoms: _407  and  _408
REMARK  168  A    between atoms: _410  and  _412
REMARK  169  A    between atoms: _412  and  _413
REMARK  170  A    between atoms: _412  and  _415
REMARK  171  A    between atoms: _415  and  _416
REMARK  172  A    between atoms: _419  and  _421
REMARK  173  A    between atoms: _421  and  _422
REMARK  174  A    between atoms: _424  and  _426
REMARK  175  A    between atoms: _426  and  _427
REMARK  176  A    between atoms: _429  and  _431
REMARK  177  A    between atoms: _431  and  _432
REMARK  178  A    between atoms: _431  and  _434
REMARK  179  A    between atoms: _434  and  _435
REMARK  180  A    between atoms: _438  and  _440
REMARK  181  A    between atoms: _440  and  _441
REMARK  182  A    between atoms: _443  and  _445
REMARK  183  A    between atoms: _445  and  _446
REMARK  184  A    between atoms: _448  and  _450
REMARK  185  A    between atoms: _450  and  _451
REMARK  186  A    between atoms: _450  and  _453
REMARK  187  A    between atoms: _453  and  _454
REMARK  188  A    between atoms: _460  and  _462
REMARK  189  A    between atoms: _462  and  _463
REMARK  190  A    between atoms: _462  and  _465
REMARK  191  A    between atoms: _465  and  _466
REMARK  192  A    between atoms: _469  and  _471
REMARK  193  A    between atoms: _471  and  _472
REMARK  194  A    between atoms: _471  and  _474
REMARK  195  A    between atoms: _477  and  _479
REMARK  196  A    between atoms: _479  and  _480
REMARK  197  A    between atoms: _479  and  _482
REMARK  198  A    between atoms: _482  and  _483
REMARK  199  A    between atoms: _487  and  _488
REMARK  200  A    between atoms: _493  and  _495
REMARK  201  A    between atoms: _495  and  _496
REMARK  202  A    between atoms: _495  and  _498
REMARK  203  A    between atoms: _498  and  _499
REMARK  204  A    between atoms: _505  and  _506
REMARK  205  A    between atoms: _511  and  _513
REMARK  206  A    between atoms: _513  and  _514
REMARK  207  A    between atoms: _513  and  _516
REMARK  208  A    between atoms: _519  and  _521
REMARK  209  A    between atoms: _521  and  _522
REMARK  210  A    between atoms: _521  and  _524
REMARK  211  A    between atoms: _524  and  _525
REMARK  212  A    between atoms: _530  and  _532
REMARK  213  A    between atoms: _532  and  _533
REMARK  214  A    between atoms: _532  and  _535
REMARK  215  A    between atoms: _535  and  _536
REMARK  216  A    between atoms: _539  and  _541
REMARK  217  A    between atoms: _541  and  _542
REMARK  218  A    between atoms: _541  and  _544
REMARK  219  A    between atoms: _544  and  _545
REMARK  220  A    between atoms: _548  and  _550
REMARK  221  A    between atoms: _550  and  _551
REMARK  222  A    between atoms: _553  and  _555
REMARK  223  A    between atoms: _555  and  _556
REMARK  224  A    between atoms: _555  and  _558
REMARK  225  A    between atoms: _558  and  _559
REMARK  226  A    between atoms: _559  and  _560
REMARK  227  A    between atoms: _560  and  _561
REMARK  228  A    between atoms: _570  and  _572
REMARK  229  A    between atoms: _572  and  _573
REMARK  230  A    between atoms: _572  and  _575
REMARK  231  A    between atoms: _575  and  _576
REMARK                            x       y       z     vdW  Elec       q    Type
REMARK                         _______ _______ _______ _____ _____    ______ ____
ROOT
ATOM      1  O   HOH     1       9.159  -5.693   9.990  0.00  0.00    +0.000 OA
ENDROOT
TORSDOF 0
REMARK  Name = ../refined-set-2016/2fgv/2fgv_pocket.pdb
REMARK  231 active torsions:
REMARK  status: ('A' for Active; 'I' for Inactive)
REMARK    1  A    between atoms: _1  and  _3
REMARK    2  A    between atoms: _3  and  _4
REMARK    3  A    between atoms: _3  and  _6
REMARK    4  A    between atoms: _6  and  _7
REMARK    5  A    between atoms: _7  and  _8
REMARK    6  A    between atoms: _8  and  _9
REMARK    7  A    between atoms: _18  and  _20
REMARK    8  A    between atoms: _20  and  _21
REMARK    9  A    between atoms: _20  and  _23
REMARK   10  A    between atoms: _23  and  _24
REMARK   11  A    between atoms: _27  and  _29
REMARK   12  A    between atoms: _29  and  _30
REMARK   13  A    between atoms: _29  and  _32
REMARK   14  A    between atoms: _32  and  _33
REMARK   15  A    between atoms: _36  and  _38
REMARK   16  A    between atoms: _38  and  _39
REMARK   17  A    between atoms: _38  and  _41
REMARK   18  A    between atoms: _41  and  _42
REMARK   19  A    between atoms: _45  and  _47
REMARK   20  A    between atoms: _47  and  _48
REMARK   21  A    between atoms: _47  and  _50
REMARK   22  A    between atoms: _50  and  _51
REMARK   23  A    between atoms: _54  and  _56
REMARK   24  A    between atoms: _56  and  _57
REMARK   25  A    between atoms: _59  and  _61
REMARK   26  A    between atoms: _61  and  _62
REMARK   27  A    between atoms: _65  and  _67
REMARK   28  A    between atoms: _67  and  _68
REMARK   29  A    between atoms: _67  and  _70
REMARK   30  A    between atoms: _70  and  _71
REMARK   31  A    between atoms: _74  and  _76
REMARK   32  A    between atoms: _76  and  _77
REMARK   33  A    between atoms: _76  and  _79
REMARK   34  A    between atoms: _79  and  _80
REMARK   35  A    between atoms: _83  and  _85
REMARK   36  A    between atoms: _85  and  _86
REMARK   37  A    between atoms: _85  and  _88
REMARK   38  A    between atoms: _88  and  _89
REMARK   39  A    between atoms: _92  and  _94
REMARK   40  A    between atoms: _94  and  _95
REMARK   41  A    between atoms: _94  and  _97
REMARK   42  A    between atoms: _100  and  _102
REMARK   43  A    between atoms: _102  and  _103
REMARK   44  A    between atoms: _102  and  _105
REMARK   45  A    between atoms: _105  and  _106
REMARK   46  A    between atoms: _106  and  _107
REMARK   47  A    between atoms: _107  and  _108
REMARK   48  A    between atoms: _108  and  _109
REMARK   49  A    between atoms: _113  and  _115
REMARK   50  A    between atoms: _115  and  _116
REMARK   51  A    between atoms: _115  and  _118
REMARK   52  A    between atoms: _118  and  _119
REMARK   53  A    between atoms: _119  and  _120
REMARK   54  A    between atoms: _122  and  _124
REMARK   55  A    between atoms: _124  and  _125
REMARK   56  A    between atoms: _124  and  _127
REMARK   57  A    between atoms: _127  and  _128
REMARK   58  A    between atoms: _131  and  _133
REMARK   59  A    between atoms: _133  and  _134
REMARK   60  A    between atoms: _136  and  _138
REMARK   61  A    between atoms: _138  and  _139
REMARK   62  A    between atoms: _141  and  _143
REMARK   63  A    between atoms: _143  and  _144
REMARK   64  A    between atoms: _143  and  _146
REMARK   65  A    between atoms: _146  and  _147
REMARK   66  A    between atoms: _150  and  _152
REMARK   67  A    between atoms: _152  and  _153
REMARK   68  A    between atoms: _155  and  _157
REMARK   69  A    between atoms: _157  and  _158
REMARK   70  A    between atoms: _160  and  _162
REMARK   71  A    between atoms: _162  and  _163
REMARK   72  A    between atoms: _162  and  _165
REMARK   73  A    between atoms: _165  and  _166
REMARK   74  A    between atoms: _172  and  _174
REMARK   75  A    between atoms: _174  and  _175
REMARK   76  A    between atoms: _174  and  _177
REMARK   77  A    between atoms: _177  and  _178
REMARK   78  A    between atoms: _181  and  _183
REMARK   79  A    between atoms: _183  and  _184
REMARK   80  A    between atoms: _183  and  _186
REMARK   81  A    between atoms: _189  and  _191
REMARK   82  A    between atoms: _191  and  _192
REMARK   83  A    between atoms: _191  and  _194
REMARK   84  A    between atoms: _194  and  _195
REMARK   85  A    between atoms: _199  and  _200
REMARK   86  A    between atoms: _205  and  _207
REMARK   87  A    between atoms: _207  and  _208
REMARK   88  A    between atoms: _207  and  _210
REMARK   89  A    between atoms: _210  and  _211
REMARK   90  A    between atoms: _217  and  _218
REMARK   91  A    between atoms: _223  and  _225
REMARK   92  A    between atoms: _225  and  _226
REMARK   93  A    between atoms: _225  and  _228
REMARK   94  A    between atoms: _231  and  _233
REMARK   95  A    between atoms: _233  and  _234
REMARK   96  A    between atoms: _233  and  _236
REMARK   97  A    between atoms: _236  and  _237
REMARK   98  A    between atoms: _242  and  _244
REMARK   99  A    between atoms: _244  and  _245
REMARK  100  A    between atoms: _244  and  _247
REMARK  101  A    between atoms: _247  and  _248
REMARK  102  A    between atoms: _251  and  _253
REMARK  103  A    between atoms: _253  and  _254
REMARK  104  A    between atoms: _253  and  _256
REMARK  105  A    between atoms: _256  and  _257
REMARK  106  A    between atoms: _260  and  _262
REMARK  107  A    between atoms: _262  and  _263
REMARK  108  A    between atoms: _265  and  _267
REMARK  109  A    between atoms: _267  and  _268
REMARK  110  A    between atoms: _267  and  _270
REMARK  111  A    between atoms: _270  and  _271
REMARK  112  A    between atoms: _271  and  _272
REMARK  113  A    between atoms: _272  and  _273
REMARK  114  A    between atoms: _282  and  _284
REMARK  115  A    between atoms: _284  and  _285
REMARK  116  A    between atoms: _284  and  _287
REMARK  117  A    between atoms: _287  and  _288
REMARK  118  A    between atoms: _293  and  _295
REMARK  119  A    between atoms: _295  and  _296
REMARK  120  A    between atoms: _295  and  _298
REMARK  121  A    between atoms: _298  and  _299
REMARK  122  A    between atoms: _299  and  _300
REMARK  123  A    between atoms: _300  and  _301
REMARK  124  A    between atoms: _310  and  _312
REMARK  125  A    between atoms: _312  and  _313
REMARK  126  A    between atoms: _312  and  _315
REMARK  127  A    between atoms: _315  and  _316
REMARK  128  A    between atoms: _319  and  _321
REMARK  129  A    between atoms: _321  and  _322
REMARK  130  A    between atoms: _321  and  _324
REMARK  131  A    between atoms: _324  and  _325
REMARK  132  A    between atoms: _328  and  _330
REMARK  133  A    between atoms: _330  and  _331
REMARK  134  A    between atoms: _330  and  _333
REMARK  135  A    between atoms: _333  and  _334
REMARK  136  A    between atoms: _337  and  _339
REMARK  137  A    between atoms: _339  and  _340
REMARK  138  A    between atoms: _339  and  _342
REMARK  139  A    between atoms: _342  and  _343
REMARK  140  A    between atoms: _346  and  _348
REMARK  141  A    between atoms: _348  and  _349
REMARK  142  A    between atoms: _351  and  _353
REMARK  143  A    between atoms: _353  and  _354
REMARK  144  A    between atoms: _357  and  _359
REMARK  145  A    between atoms: _359  and  _360
REMARK  146  A    between atoms: _359  and  _362
REMARK  147  A    between atoms: _362  and  _363
REMARK  148  A    between atoms: _366  and  _368
REMARK  149  A    between atoms: _368  and  _369
REMARK  150  A    between atoms: _368  and  _371
REMARK  151  A    between atoms: _371  and  _372
REMARK  152  A    between atoms: _375  and  _377
REMARK  153  A    between atoms: _377  and  _378
REMARK  154  A    between atoms: _377  and  _380
REMARK  155  A    between atoms: _380  and  _381
REMARK  156  A    between atoms: _384  and  _386
REMARK  157  A    between atoms: _386  and  _387
REMARK  158  A    between atoms: _386  and  _389
REMARK  159  A    between atoms: _392  and  _394
REMARK  160  A    between atoms: _394  and  _395
REMARK  161  A    between atoms: _394  and  _397
REMARK  162  A    between atoms: _397  and  _398
REMARK  163  A    between atoms: _401  and  _403
REMARK  164  A    between atoms: _403  and  _404
REMARK  165  A    between atoms: _403  and  _406
REMARK  166  A    between atoms: _406  and  _407
REMARK  167  A    between atoms: _407  and  _408
REMARK  168  A    between atoms: _410  and  _412
REMARK  169  A    between atoms: _412  and  _413
REMARK  170  A    between atoms: _412  and  _415
REMARK  171  A    between atoms: _415  and  _416
REMARK  172  A    between atoms: _419  and  _421
REMARK  173  A    between atoms: _421  and  _422
REMARK  174  A    between atoms: _424  and  _426
REMARK  175  A    between atoms: _426  and  _427
REMARK  176  A    between atoms: _429  and  _431
REMARK  177  A    between atoms: _431  and  _432
REMARK  178  A    between atoms: _431  and  _434
REMARK  179  A    between atoms: _434  and  _435
REMARK  180  A    between atoms: _438  and  _440
REMARK  181  A    between atoms: _440  and  _441
REMARK  182  A    between atoms: _443  and  _445
REMARK  183  A    between atoms: _445  and  _446
REMARK  184  A    between atoms: _448  and  _450
REMARK  185  A    between atoms: _450  and  _451
REMARK  186  A    between atoms: _450  and  _453
REMARK  187  A    between atoms: _453  and  _454
REMARK  188  A    between atoms: _460  and  _462
REMARK  189  A    between atoms: _462  and  _463
REMARK  190  A    between atoms: _462  and  _465
REMARK  191  A    between atoms: _465  and  _466
REMARK  192  A    between atoms: _469  and  _471
REMARK  193  A    between atoms: _471  and  _472
REMARK  194  A    between atoms: _471  and  _474
REMARK  195  A    between atoms: _477  and  _479
REMARK  196  A    between atoms: _479  and  _480
REMARK  197  A    between atoms: _479  and  _482
REMARK  198  A    between atoms: _482  and  _483
REMARK  199  A    between atoms: _487  and  _488
REMARK  200  A    between atoms: _493  and  _495
REMARK  201  A    between atoms: _495  and  _496
REMARK  202  A    between atoms: _495  and  _498
REMARK  203  A    between atoms: _498  and  _499
REMARK  204  A    between atoms: _505  and  _506
REMARK  205  A    between atoms: _511  and  _513
REMARK  206  A    between atoms: _513  and  _514
REMARK  207  A    between atoms: _513  and  _516
REMARK  208  A    between atoms: _519  and  _521
REMARK  209  A    between atoms: _521  and  _522
REMARK  210  A    between atoms: _521  and  _524
REMARK  211  A    between atoms: _524  and  _525
REMARK  212  A    between atoms: _530  and  _532
REMARK  213  A    between atoms: _532  and  _533
REMARK  214  A    between atoms: _532  and  _535
REMARK  215  A    between atoms: _535  and  _536
REMARK  216  A    between atoms: _539  and  _541
REMARK  217  A    between atoms: _541  and  _542
REMARK  218  A    between atoms: _541  and  _544
REMARK  219  A    between atoms: _544  and  _545
REMARK  220  A    between atoms: _548  and  _550
REMARK  221  A    between atoms: _550  and  _551
REMARK  222  A    between atoms: _553  and  _555
REMARK  223  A    between atoms: _555  and  _556
REMARK  224  A    between atoms: _555  and  _558
REMARK  225  A    between atoms: _558  and  _559
REMARK  226  A    between atoms: _559  and  _560
REMARK  227  A    between atoms: _560  and  _561
REMARK  228  A    between atoms: _570  and  _572
REMARK  229  A    between atoms: _572  and  _573
REMARK  230  A    between atoms: _572  and  _575
REMARK  231  A    between atoms: _575  and  _576
REMARK                            x       y       z     vdW  Elec       q    Type
REMARK                         _______ _______ _______ _____ _____    ______ ____
ROOT
ATOM      1  O   HOH     1      20.423  -3.319   7.480  0.00  0.00    +0.000 OA
ENDROOT
TORSDOF 0
REMARK  Name = ../refined-set-2016/2fgv/2fgv_pocket.pdb
REMARK  231 active torsions:
REMARK  status: ('A' for Active; 'I' for Inactive)
REMARK    1  A    between atoms: _1  and  _3
REMARK    2  A    between atoms: _3  and  _4
REMARK    3  A    between atoms: _3  and  _6
REMARK    4  A    between atoms: _6  and  _7
REMARK    5  A    between atoms: _7  and  _8
REMARK    6  A    between atoms: _8  and  _9
REMARK    7  A    between atoms: _18  and  _20
REMARK    8  A    between atoms: _20  and  _21
REMARK    9  A    between atoms: _20  and  _23
REMARK   10  A    between atoms: _23  and  _24
REMARK   11  A    between atoms: _27  and  _29
REMARK   12  A    between atoms: _29  and  _30
REMARK   13  A    between atoms: _29  and  _32
REMARK   14  A    between atoms: _32  and  _33
REMARK   15  A    between atoms: _36  and  _38
REMARK   16  A    between atoms: _38  and  _39
REMARK   17  A    between atoms: _38  and  _41
REMARK   18  A    between atoms: _41  and  _42
REMARK   19  A    between atoms: _45  and  _47
REMARK   20  A    between atoms: _47  and  _48
REMARK   21  A    between atoms: _47  and  _50
REMARK   22  A    between atoms: _50  and  _51
REMARK   23  A    between atoms: _54  and  _56
REMARK   24  A    between atoms: _56  and  _57
REMARK   25  A    between atoms: _59  and  _61
REMARK   26  A    between atoms: _61  and  _62
REMARK   27  A    between atoms: _65  and  _67
REMARK   28  A    between atoms: _67  and  _68
REMARK   29  A    between atoms: _67  and  _70
REMARK   30  A    between atoms: _70  and  _71
REMARK   31  A    between atoms: _74  and  _76
REMARK   32  A    between atoms: _76  and  _77
REMARK   33  A    between atoms: _76  and  _79
REMARK   34  A    between atoms: _79  and  _80
REMARK   35  A    between atoms: _83  and  _85
REMARK   36  A    between atoms: _85  and  _86
REMARK   37  A    between atoms: _85  and  _88
REMARK   38  A    between atoms: _88  and  _89
REMARK   39  A    between atoms: _92  and  _94
REMARK   40  A    between atoms: _94  and  _95
REMARK   41  A    between atoms: _94  and  _97
REMARK   42  A    between atoms: _100  and  _102
REMARK   43  A    between atoms: _102  and  _103
REMARK   44  A    between atoms: _102  and  _105
REMARK   45  A    between atoms: _105  and  _106
REMARK   46  A    between atoms: _106  and  _107
REMARK   47  A    between atoms: _107  and  _108
REMARK   48  A    between atoms: _108  and  _109
REMARK   49  A    between atoms: _113  and  _115
REMARK   50  A    between atoms: _115  and  _116
REMARK   51  A    between atoms: _115  and  _118
REMARK   52  A    between atoms: _118  and  _119
REMARK   53  A    between atoms: _119  and  _120
REMARK   54  A    between atoms: _122  and  _124
REMARK   55  A    between atoms: _124  and  _125
REMARK   56  A    between atoms: _124  and  _127
REMARK   57  A    between atoms: _127  and  _128
REMARK   58  A    between atoms: _131  and  _133
REMARK   59  A    between atoms: _133  and  _134
REMARK   60  A    between atoms: _136  and  _138
REMARK   61  A    between atoms: _138  and  _139
REMARK   62  A    between atoms: _141  and  _143
REMARK   63  A    between atoms: _143  and  _144
REMARK   64  A    between atoms: _143  and  _146
REMARK   65  A    between atoms: _146  and  _147
REMARK   66  A    between atoms: _150  and  _152
REMARK   67  A    between atoms: _152  and  _153
REMARK   68  A    between atoms: _155  and  _157
REMARK   69  A    between atoms: _157  and  _158
REMARK   70  A    between atoms: _160  and  _162
REMARK   71  A    between atoms: _162  and  _163
REMARK   72  A    between atoms: _162  and  _165
REMARK   73  A    between atoms: _165  and  _166
REMARK   74  A    between atoms: _172  and  _174
REMARK   75  A    between atoms: _174  and  _175
REMARK   76  A    between atoms: _174  and  _177
REMARK   77  A    between atoms: _177  and  _178
REMARK   78  A    between atoms: _181  and  _183
REMARK   79  A    between atoms: _183  and  _184
REMARK   80  A    between atoms: _183  and  _186
REMARK   81  A    between atoms: _189  and  _191
REMARK   82  A    between atoms: _191  and  _192
REMARK   83  A    between atoms: _191  and  _194
REMARK   84  A    between atoms: _194  and  _195
REMARK   85  A    between atoms: _199  and  _200
REMARK   86  A    between atoms: _205  and  _207
REMARK   87  A    between atoms: _207  and  _208
REMARK   88  A    between atoms: _207  and  _210
REMARK   89  A    between atoms: _210  and  _211
REMARK   90  A    between atoms: _217  and  _218
REMARK   91  A    between atoms: _223  and  _225
REMARK   92  A    between atoms: _225  and  _226
REMARK   93  A    between atoms: _225  and  _228
REMARK   94  A    between atoms: _231  and  _233
REMARK   95  A    between atoms: _233  and  _234
REMARK   96  A    between atoms: _233  and  _236
REMARK   97  A    between atoms: _236  and  _237
REMARK   98  A    between atoms: _242  and  _244
REMARK   99  A    between atoms: _244  and  _245
REMARK  100  A    between atoms: _244  and  _247
REMARK  101  A    between atoms: _247  and  _248
REMARK  102  A    between atoms: _251  and  _253
REMARK  103  A    between atoms: _253  and  _254
REMARK  104  A    between atoms: _253  and  _256
REMARK  105  A    between atoms: _256  and  _257
REMARK  106  A    between atoms: _260  and  _262
REMARK  107  A    between atoms: _262  and  _263
REMARK  108  A    between atoms: _265  and  _267
REMARK  109  A    between atoms: _267  and  _268
REMARK  110  A    between atoms: _267  and  _270
REMARK  111  A    between atoms: _270  and  _271
REMARK  112  A    between atoms: _271  and  _272
REMARK  113  A    between atoms: _272  and  _273
REMARK  114  A    between atoms: _282  and  _284
REMARK  115  A    between atoms: _284  and  _285
REMARK  116  A    between atoms: _284  and  _287
REMARK  117  A    between atoms: _287  and  _288
REMARK  118  A    between atoms: _293  and  _295
REMARK  119  A    between atoms: _295  and  _296
REMARK  120  A    between atoms: _295  and  _298
REMARK  121  A    between atoms: _298  and  _299
REMARK  122  A    between atoms: _299  and  _300
REMARK  123  A    between atoms: _300  and  _301
REMARK  124  A    between atoms: _310  and  _312
REMARK  125  A    between atoms: _312  and  _313
REMARK  126  A    between atoms: _312  and  _315
REMARK  127  A    between atoms: _315  and  _316
REMARK  128  A    between atoms: _319  and  _321
REMARK  129  A    between atoms: _321  and  _322
REMARK  130  A    between atoms: _321  and  _324
REMARK  131  A    between atoms: _324  and  _325
REMARK  132  A    between atoms: _328  and  _330
REMARK  133  A    between atoms: _330  and  _331
REMARK  134  A    between atoms: _330  and  _333
REMARK  135  A    between atoms: _333  and  _334
REMARK  136  A    between atoms: _337  and  _339
REMARK  137  A    between atoms: _339  and  _340
REMARK  138  A    between atoms: _339  and  _342
REMARK  139  A    between atoms: _342  and  _343
REMARK  140  A    between atoms: _346  and  _348
REMARK  141  A    between atoms: _348  and  _349
REMARK  142  A    between atoms: _351  and  _353
REMARK  143  A    between atoms: _353  and  _354
REMARK  144  A    between atoms: _357  and  _359
REMARK  145  A    between atoms: _359  and  _360
REMARK  146  A    between atoms: _359  and  _362
REMARK  147  A    between atoms: _362  and  _363
REMARK  148  A    between atoms: _366  and  _368
REMARK  149  A    between atoms: _368  and  _369
REMARK  150  A    between atoms: _368  and  _371
REMARK  151  A    between atoms: _371  and  _372
REMARK  152  A    between atoms: _375  and  _377
REMARK  153  A    between atoms: _377  and  _378
REMARK  154  A    between atoms: _377  and  _380
REMARK  155  A    between atoms: _380  and  _381
REMARK  156  A    between atoms: _384  and  _386
REMARK  157  A    between atoms: _386  and  _387
REMARK  158  A    between atoms: _386  and  _389
REMARK  159  A    between atoms: _392  and  _394
REMARK  160  A    between atoms: _394  and  _395
REMARK  161  A    between atoms: _394  and  _397
REMARK  162  A    between atoms: _397  and  _398
REMARK  163  A    between atoms: _401  and  _403
REMARK  164  A    between atoms: _403  and  _404
REMARK  165  A    between atoms: _403  and  _406
REMARK  166  A    between atoms: _406  and  _407
REMARK  167  A    between atoms: _407  and  _408
REMARK  168  A    between atoms: _410  and  _412
REMARK  169  A    between atoms: _412  and  _413
REMARK  170  A    between atoms: _412  and  _415
REMARK  171  A    between atoms: _415  and  _416
REMARK  172  A    between atoms: _419  and  _421
REMARK  173  A    between atoms: _421  and  _422
REMARK  174  A    between atoms: _424  and  _426
REMARK  175  A    between atoms: _426  and  _427
REMARK  176  A    between atoms: _429  and  _431
REMARK  177  A    between atoms: _431  and  _432
REMARK  178  A    between atoms: _431  and  _434
REMARK  179  A    between atoms: _434  and  _435
REMARK  180  A    between atoms: _438  and  _440
REMARK  181  A    between atoms: _440  and  _441
REMARK  182  A    between atoms: _443  and  _445
REMARK  183  A    between atoms: _445  and  _446
REMARK  184  A    between atoms: _448  and  _450
REMARK  185  A    between atoms: _450  and  _451
REMARK  186  A    between atoms: _450  and  _453
REMARK  187  A    between atoms: _453  and  _454
REMARK  188  A    between atoms: _460  and  _462
REMARK  189  A    between atoms: _462  and  _463
REMARK  190  A    between atoms: _462  and  _465
REMARK  191  A    between atoms: _465  and  _466
REMARK  192  A    between atoms: _469  and  _471
REMARK  193  A    between atoms: _471  and  _472
REMARK  194  A    between atoms: _471  and  _474
REMARK  195  A    between atoms: _477  and  _479
REMARK  196  A    between atoms: _479  and  _480
REMARK  197  A    between atoms: _479  and  _482
REMARK  198  A    between atoms: _482  and  _483
REMARK  199  A    between atoms: _487  and  _488
REMARK  200  A    between atoms: _493  and  _495
REMARK  201  A    between atoms: _495  and  _496
REMARK  202  A    between atoms: _495  and  _498
REMARK  203  A    between atoms: _498  and  _499
REMARK  204  A    between atoms: _505  and  _506
REMARK  205  A    between atoms: _511  and  _513
REMARK  206  A    between atoms: _513  and  _514
REMARK  207  A    between atoms: _513  and  _516
REMARK  208  A    between atoms: _519  and  _521
REMARK  209  A    between atoms: _521  and  _522
REMARK  210  A    between atoms: _521  and  _524
REMARK  211  A    between atoms: _524  and  _525
REMARK  212  A    between atoms: _530  and  _532
REMARK  213  A    between atoms: _532  and  _533
REMARK  214  A    between atoms: _532  and  _535
REMARK  215  A    between atoms: _535  and  _536
REMARK  216  A    between atoms: _539  and  _541
REMARK  217  A    between atoms: _541  and  _542
REMARK  218  A    between atoms: _541  and  _544
REMARK  219  A    between atoms: _544  and  _545
REMARK  220  A    between atoms: _548  and  _550
REMARK  221  A    between atoms: _550  and  _551
REMARK  222  A    between atoms: _553  and  _555
REMARK  223  A    between atoms: _555  and  _556
REMARK  224  A    between atoms: _555  and  _558
REMARK  225  A    between atoms: _558  and  _559
REMARK  226  A    between atoms: _559  and  _560
REMARK  227  A    between atoms: _560  and  _561
REMARK  228  A    between atoms: _570  and  _572
REMARK  229  A    between atoms: _572  and  _573
REMARK  230  A    between atoms: _572  and  _575
REMARK  231  A    between atoms: _575  and  _576
REMARK                            x       y       z     vdW  Elec       q    Type
REMARK                         _______ _______ _______ _____ _____    ______ ____
ROOT
ATOM      1  O   HOH     1      20.089  -2.879  18.562  0.00  0.00    +0.000 OA
ENDROOT
TORSDOF 0
REMARK  Name = ../refined-set-2016/2fgv/2fgv_pocket.pdb
REMARK  231 active torsions:
REMARK  status: ('A' for Active; 'I' for Inactive)
REMARK    1  A    between atoms: _1  and  _3
REMARK    2  A    between atoms: _3  and  _4
REMARK    3  A    between atoms: _3  and  _6
REMARK    4  A    between atoms: _6  and  _7
REMARK    5  A    between atoms: _7  and  _8
REMARK    6  A    between atoms: _8  and  _9
REMARK    7  A    between atoms: _18  and  _20
REMARK    8  A    between atoms: _20  and  _21
REMARK    9  A    between atoms: _20  and  _23
REMARK   10  A    between atoms: _23  and  _24
REMARK   11  A    between atoms: _27  and  _29
REMARK   12  A    between atoms: _29  and  _30
REMARK   13  A    between atoms: _29  and  _32
REMARK   14  A    between atoms: _32  and  _33
REMARK   15  A    between atoms: _36  and  _38
REMARK   16  A    between atoms: _38  and  _39
REMARK   17  A    between atoms: _38  and  _41
REMARK   18  A    between atoms: _41  and  _42
REMARK   19  A    between atoms: _45  and  _47
REMARK   20  A    between atoms: _47  and  _48
REMARK   21  A    between atoms: _47  and  _50
REMARK   22  A    between atoms: _50  and  _51
REMARK   23  A    between atoms: _54  and  _56
REMARK   24  A    between atoms: _56  and  _57
REMARK   25  A    between atoms: _59  and  _61
REMARK   26  A    between atoms: _61  and  _62
REMARK   27  A    between atoms: _65  and  _67
REMARK   28  A    between atoms: _67  and  _68
REMARK   29  A    between atoms: _67  and  _70
REMARK   30  A    between atoms: _70  and  _71
REMARK   31  A    between atoms: _74  and  _76
REMARK   32  A    between atoms: _76  and  _77
REMARK   33  A    between atoms: _76  and  _79
REMARK   34  A    between atoms: _79  and  _80
REMARK   35  A    between atoms: _83  and  _85
REMARK   36  A    between atoms: _85  and  _86
REMARK   37  A    between atoms: _85  and  _88
REMARK   38  A    between atoms: _88  and  _89
REMARK   39  A    between atoms: _92  and  _94
REMARK   40  A    between atoms: _94  and  _95
REMARK   41  A    between atoms: _94  and  _97
REMARK   42  A    between atoms: _100  and  _102
REMARK   43  A    between atoms: _102  and  _103
REMARK   44  A    between atoms: _102  and  _105
REMARK   45  A    between atoms: _105  and  _106
REMARK   46  A    between atoms: _106  and  _107
REMARK   47  A    between atoms: _107  and  _108
REMARK   48  A    between atoms: _108  and  _109
REMARK   49  A    between atoms: _113  and  _115
REMARK   50  A    between atoms: _115  and  _116
REMARK   51  A    between atoms: _115  and  _118
REMARK   52  A    between atoms: _118  and  _119
REMARK   53  A    between atoms: _119  and  _120
REMARK   54  A    between atoms: _122  and  _124
REMARK   55  A    between atoms: _124  and  _125
REMARK   56  A    between atoms: _124  and  _127
REMARK   57  A    between atoms: _127  and  _128
REMARK   58  A    between atoms: _131  and  _133
REMARK   59  A    between atoms: _133  and  _134
REMARK   60  A    between atoms: _136  and  _138
REMARK   61  A    between atoms: _138  and  _139
REMARK   62  A    between atoms: _141  and  _143
REMARK   63  A    between atoms: _143  and  _144
REMARK   64  A    between atoms: _143  and  _146
REMARK   65  A    between atoms: _146  and  _147
REMARK   66  A    between atoms: _150  and  _152
REMARK   67  A    between atoms: _152  and  _153
REMARK   68  A    between atoms: _155  and  _157
REMARK   69  A    between atoms: _157  and  _158
REMARK   70  A    between atoms: _160  and  _162
REMARK   71  A    between atoms: _162  and  _163
REMARK   72  A    between atoms: _162  and  _165
REMARK   73  A    between atoms: _165  and  _166
REMARK   74  A    between atoms: _172  and  _174
REMARK   75  A    between atoms: _174  and  _175
REMARK   76  A    between atoms: _174  and  _177
REMARK   77  A    between atoms: _177  and  _178
REMARK   78  A    between atoms: _181  and  _183
REMARK   79  A    between atoms: _183  and  _184
REMARK   80  A    between atoms: _183  and  _186
REMARK   81  A    between atoms: _189  and  _191
REMARK   82  A    between atoms: _191  and  _192
REMARK   83  A    between atoms: _191  and  _194
REMARK   84  A    between atoms: _194  and  _195
REMARK   85  A    between atoms: _199  and  _200
REMARK   86  A    between atoms: _205  and  _207
REMARK   87  A    between atoms: _207  and  _208
REMARK   88  A    between atoms: _207  and  _210
REMARK   89  A    between atoms: _210  and  _211
REMARK   90  A    between atoms: _217  and  _218
REMARK   91  A    between atoms: _223  and  _225
REMARK   92  A    between atoms: _225  and  _226
REMARK   93  A    between atoms: _225  and  _228
REMARK   94  A    between atoms: _231  and  _233
REMARK   95  A    between atoms: _233  and  _234
REMARK   96  A    between atoms: _233  and  _236
REMARK   97  A    between atoms: _236  and  _237
REMARK   98  A    between atoms: _242  and  _244
REMARK   99  A    between atoms: _244  and  _245
REMARK  100  A    between atoms: _244  and  _247
REMARK  101  A    between atoms: _247  and  _248
REMARK  102  A    between atoms: _251  and  _253
REMARK  103  A    between atoms: _253  and  _254
REMARK  104  A    between atoms: _253  and  _256
REMARK  105  A    between atoms: _256  and  _257
REMARK  106  A    between atoms: _260  and  _262
REMARK  107  A    between atoms: _262  and  _263
REMARK  108  A    between atoms: _265  and  _267
REMARK  109  A    between atoms: _267  and  _268
REMARK  110  A    between atoms: _267  and  _270
REMARK  111  A    between atoms: _270  and  _271
REMARK  112  A    between atoms: _271  and  _272
REMARK  113  A    between atoms: _272  and  _273
REMARK  114  A    between atoms: _282  and  _284
REMARK  115  A    between atoms: _284  and  _285
REMARK  116  A    between atoms: _284  and  _287
REMARK  117  A    between atoms: _287  and  _288
REMARK  118  A    between atoms: _293  and  _295
REMARK  119  A    between atoms: _295  and  _296
REMARK  120  A    between atoms: _295  and  _298
REMARK  121  A    between atoms: _298  and  _299
REMARK  122  A    between atoms: _299  and  _300
REMARK  123  A    between atoms: _300  and  _301
REMARK  124  A    between atoms: _310  and  _312
REMARK  125  A    between atoms: _312  and  _313
REMARK  126  A    between atoms: _312  and  _315
REMARK  127  A    between atoms: _315  and  _316
REMARK  128  A    between atoms: _319  and  _321
REMARK  129  A    between atoms: _321  and  _322
REMARK  130  A    between atoms: _321  and  _324
REMARK  131  A    between atoms: _324  and  _325
REMARK  132  A    between atoms: _328  and  _330
REMARK  133  A    between atoms: _330  and  _331
REMARK  134  A    between atoms: _330  and  _333
REMARK  135  A    between atoms: _333  and  _334
REMARK  136  A    between atoms: _337  and  _339
REMARK  137  A    between atoms: _339  and  _340
REMARK  138  A    between atoms: _339  and  _342
REMARK  139  A    between atoms: _342  and  _343
REMARK  140  A    between atoms: _346  and  _348
REMARK  141  A    between atoms: _348  and  _349
REMARK  142  A    between atoms: _351  and  _353
REMARK  143  A    between atoms: _353  and  _354
REMARK  144  A    between atoms: _357  and  _359
REMARK  145  A    between atoms: _359  and  _360
REMARK  146  A    between atoms: _359  and  _362
REMARK  147  A    between atoms: _362  and  _363
REMARK  148  A    between atoms: _366  and  _368
REMARK  149  A    between atoms: _368  and  _369
REMARK  150  A    between atoms: _368  and  _371
REMARK  151  A    between atoms: _371  and  _372
REMARK  152  A    between atoms: _375  and  _377
REMARK  153  A    between atoms: _377  and  _378
REMARK  154  A    between atoms: _377  and  _380
REMARK  155  A    between atoms: _380  and  _381
REMARK  156  A    between atoms: _384  and  _386
REMARK  157  A    between atoms: _386  and  _387
REMARK  158  A    between atoms: _386  and  _389
REMARK  159  A    between atoms: _392  and  _394
REMARK  160  A    between atoms: _394  and  _395
REMARK  161  A    between atoms: _394  and  _397
REMARK  162  A    between atoms: _397  and  _398
REMARK  163  A    between atoms: _401  and  _403
REMARK  164  A    between atoms: _403  and  _404
REMARK  165  A    between atoms: _403  and  _406
REMARK  166  A    between atoms: _406  and  _407
REMARK  167  A    between atoms: _407  and  _408
REMARK  168  A    between atoms: _410  and  _412
REMARK  169  A    between atoms: _412  and  _413
REMARK  170  A    between atoms: _412  and  _415
REMARK  171  A    between atoms: _415  and  _416
REMARK  172  A    between atoms: _419  and  _421
REMARK  173  A    between atoms: _421  and  _422
REMARK  174  A    between atoms: _424  and  _426
REMARK  175  A    between atoms: _426  and  _427
REMARK  176  A    between atoms: _429  and  _431
REMARK  177  A    between atoms: _431  and  _432
REMARK  178  A    between atoms: _431  and  _434
REMARK  179  A    between atoms: _434  and  _435
REMARK  180  A    between atoms: _438  and  _440
REMARK  181  A    between atoms: _440  and  _441
REMARK  182  A    between atoms: _443  and  _445
REMARK  183  A    between atoms: _445  and  _446
REMARK  184  A    between atoms: _448  and  _450
REMARK  185  A    between atoms: _450  and  _451
REMARK  186  A    between atoms: _450  and  _453
REMARK  187  A    between atoms: _453  and  _454
REMARK  188  A    between atoms: _460  and  _462
REMARK  189  A    between atoms: _462  and  _463
REMARK  190  A    between atoms: _462  and  _465
REMARK  191  A    between atoms: _465  and  _466
REMARK  192  A    between atoms: _469  and  _471
REMARK  193  A    between atoms: _471  and  _472
REMARK  194  A    between atoms: _471  and  _474
REMARK  195  A    between atoms: _477  and  _479
REMARK  196  A    between atoms: _479  and  _480
REMARK  197  A    between atoms: _479  and  _482
REMARK  198  A    between atoms: _482  and  _483
REMARK  199  A    between atoms: _487  and  _488
REMARK  200  A    between atoms: _493  and  _495
REMARK  201  A    between atoms: _495  and  _496
REMARK  202  A    between atoms: _495  and  _498
REMARK  203  A    between atoms: _498  and  _499
REMARK  204  A    between atoms: _505  and  _506
REMARK  205  A    between atoms: _511  and  _513
REMARK  206  A    between atoms: _513  and  _514
REMARK  207  A    between atoms: _513  and  _516
REMARK  208  A    between atoms: _519  and  _521
REMARK  209  A    between atoms: _521  and  _522
REMARK  210  A    between atoms: _521  and  _524
REMARK  211  A    between atoms: _524  and  _525
REMARK  212  A    between atoms: _530  and  _532
REMARK  213  A    between atoms: _532  and  _533
REMARK  214  A    between atoms: _532  and  _535
REMARK  215  A    between atoms: _535  and  _536
REMARK  216  A    between atoms: _539  and  _541
REMARK  217  A    between atoms: _541  and  _542
REMARK  218  A    between atoms: _541  and  _544
REMARK  219  A    between atoms: _544  and  _545
REMARK  220  A    between atoms: _548  and  _550
REMARK  221  A    between atoms: _550  and  _551
REMARK  222  A    between atoms: _553  and  _555
REMARK  223  A    between atoms: _555  and  _556
REMARK  224  A    between atoms: _555  and  _558
REMARK  225  A    between atoms: _558  and  _559
REMARK  226  A    between atoms: _559  and  _560
REMARK  227  A    between atoms: _560  and  _561
REMARK  228  A    between atoms: _570  and  _572
REMARK  229  A    between atoms: _572  and  _573
REMARK  230  A    between atoms: _572  and  _575
REMARK  231  A    between atoms: _575  and  _576
REMARK                            x       y       z     vdW  Elec       q    Type
REMARK                         _______ _______ _______ _____ _____    ______ ____
ROOT
ATOM      1  O   HOH     1      20.629  -5.007   9.663  0.00  0.00    +0.000 OA
ENDROOT
TORSDOF 0
REMARK  Name = ../refined-set-2016/2fgv/2fgv_pocket.pdb
REMARK  231 active torsions:
REMARK  status: ('A' for Active; 'I' for Inactive)
REMARK    1  A    between atoms: _1  and  _3
REMARK    2  A    between atoms: _3  and  _4
REMARK    3  A    between atoms: _3  and  _6
REMARK    4  A    between atoms: _6  and  _7
REMARK    5  A    between atoms: _7  and  _8
REMARK    6  A    between atoms: _8  and  _9
REMARK    7  A    between atoms: _18  and  _20
REMARK    8  A    between atoms: _20  and  _21
REMARK    9  A    between atoms: _20  and  _23
REMARK   10  A    between atoms: _23  and  _24
REMARK   11  A    between atoms: _27  and  _29
REMARK   12  A    between atoms: _29  and  _30
REMARK   13  A    between atoms: _29  and  _32
REMARK   14  A    between atoms: _32  and  _33
REMARK   15  A    between atoms: _36  and  _38
REMARK   16  A    between atoms: _38  and  _39
REMARK   17  A    between atoms: _38  and  _41
REMARK   18  A    between atoms: _41  and  _42
REMARK   19  A    between atoms: _45  and  _47
REMARK   20  A    between atoms: _47  and  _48
REMARK   21  A    between atoms: _47  and  _50
REMARK   22  A    between atoms: _50  and  _51
REMARK   23  A    between atoms: _54  and  _56
REMARK   24  A    between atoms: _56  and  _57
REMARK   25  A    between atoms: _59  and  _61
REMARK   26  A    between atoms: _61  and  _62
REMARK   27  A    between atoms: _65  and  _67
REMARK   28  A    between atoms: _67  and  _68
REMARK   29  A    between atoms: _67  and  _70
REMARK   30  A    between atoms: _70  and  _71
REMARK   31  A    between atoms: _74  and  _76
REMARK   32  A    between atoms: _76  and  _77
REMARK   33  A    between atoms: _76  and  _79
REMARK   34  A    between atoms: _79  and  _80
REMARK   35  A    between atoms: _83  and  _85
REMARK   36  A    between atoms: _85  and  _86
REMARK   37  A    between atoms: _85  and  _88
REMARK   38  A    between atoms: _88  and  _89
REMARK   39  A    between atoms: _92  and  _94
REMARK   40  A    between atoms: _94  and  _95
REMARK   41  A    between atoms: _94  and  _97
REMARK   42  A    between atoms: _100  and  _102
REMARK   43  A    between atoms: _102  and  _103
REMARK   44  A    between atoms: _102  and  _105
REMARK   45  A    between atoms: _105  and  _106
REMARK   46  A    between atoms: _106  and  _107
REMARK   47  A    between atoms: _107  and  _108
REMARK   48  A    between atoms: _108  and  _109
REMARK   49  A    between atoms: _113  and  _115
REMARK   50  A    between atoms: _115  and  _116
REMARK   51  A    between atoms: _115  and  _118
REMARK   52  A    between atoms: _118  and  _119
REMARK   53  A    between atoms: _119  and  _120
REMARK   54  A    between atoms: _122  and  _124
REMARK   55  A    between atoms: _124  and  _125
REMARK   56  A    between atoms: _124  and  _127
REMARK   57  A    between atoms: _127  and  _128
REMARK   58  A    between atoms: _131  and  _133
REMARK   59  A    between atoms: _133  and  _134
REMARK   60  A    between atoms: _136  and  _138
REMARK   61  A    between atoms: _138  and  _139
REMARK   62  A    between atoms: _141  and  _143
REMARK   63  A    between atoms: _143  and  _144
REMARK   64  A    between atoms: _143  and  _146
REMARK   65  A    between atoms: _146  and  _147
REMARK   66  A    between atoms: _150  and  _152
REMARK   67  A    between atoms: _152  and  _153
REMARK   68  A    between atoms: _155  and  _157
REMARK   69  A    between atoms: _157  and  _158
REMARK   70  A    between atoms: _160  and  _162
REMARK   71  A    between atoms: _162  and  _163
REMARK   72  A    between atoms: _162  and  _165
REMARK   73  A    between atoms: _165  and  _166
REMARK   74  A    between atoms: _172  and  _174
REMARK   75  A    between atoms: _174  and  _175
REMARK   76  A    between atoms: _174  and  _177
REMARK   77  A    between atoms: _177  and  _178
REMARK   78  A    between atoms: _181  and  _183
REMARK   79  A    between atoms: _183  and  _184
REMARK   80  A    between atoms: _183  and  _186
REMARK   81  A    between atoms: _189  and  _191
REMARK   82  A    between atoms: _191  and  _192
REMARK   83  A    between atoms: _191  and  _194
REMARK   84  A    between atoms: _194  and  _195
REMARK   85  A    between atoms: _199  and  _200
REMARK   86  A    between atoms: _205  and  _207
REMARK   87  A    between atoms: _207  and  _208
REMARK   88  A    between atoms: _207  and  _210
REMARK   89  A    between atoms: _210  and  _211
REMARK   90  A    between atoms: _217  and  _218
REMARK   91  A    between atoms: _223  and  _225
REMARK   92  A    between atoms: _225  and  _226
REMARK   93  A    between atoms: _225  and  _228
REMARK   94  A    between atoms: _231  and  _233
REMARK   95  A    between atoms: _233  and  _234
REMARK   96  A    between atoms: _233  and  _236
REMARK   97  A    between atoms: _236  and  _237
REMARK   98  A    between atoms: _242  and  _244
REMARK   99  A    between atoms: _244  and  _245
REMARK  100  A    between atoms: _244  and  _247
REMARK  101  A    between atoms: _247  and  _248
REMARK  102  A    between atoms: _251  and  _253
REMARK  103  A    between atoms: _253  and  _254
REMARK  104  A    between atoms: _253  and  _256
REMARK  105  A    between atoms: _256  and  _257
REMARK  106  A    between atoms: _260  and  _262
REMARK  107  A    between atoms: _262  and  _263
REMARK  108  A    between atoms: _265  and  _267
REMARK  109  A    between atoms: _267  and  _268
REMARK  110  A    between atoms: _267  and  _270
REMARK  111  A    between atoms: _270  and  _271
REMARK  112  A    between atoms: _271  and  _272
REMARK  113  A    between atoms: _272  and  _273
REMARK  114  A    between atoms: _282  and  _284
REMARK  115  A    between atoms: _284  and  _285
REMARK  116  A    between atoms: _284  and  _287
REMARK  117  A    between atoms: _287  and  _288
REMARK  118  A    between atoms: _293  and  _295
REMARK  119  A    between atoms: _295  and  _296
REMARK  120  A    between atoms: _295  and  _298
REMARK  121  A    between atoms: _298  and  _299
REMARK  122  A    between atoms: _299  and  _300
REMARK  123  A    between atoms: _300  and  _301
REMARK  124  A    between atoms: _310  and  _312
REMARK  125  A    between atoms: _312  and  _313
REMARK  126  A    between atoms: _312  and  _315
REMARK  127  A    between atoms: _315  and  _316
REMARK  128  A    between atoms: _319  and  _321
REMARK  129  A    between atoms: _321  and  _322
REMARK  130  A    between atoms: _321  and  _324
REMARK  131  A    between atoms: _324  and  _325
REMARK  132  A    between atoms: _328  and  _330
REMARK  133  A    between atoms: _330  and  _331
REMARK  134  A    between atoms: _330  and  _333
REMARK  135  A    between atoms: _333  and  _334
REMARK  136  A    between atoms: _337  and  _339
REMARK  137  A    between atoms: _339  and  _340
REMARK  138  A    between atoms: _339  and  _342
REMARK  139  A    between atoms: _342  and  _343
REMARK  140  A    between atoms: _346  and  _348
REMARK  141  A    between atoms: _348  and  _349
REMARK  142  A    between atoms: _351  and  _353
REMARK  143  A    between atoms: _353  and  _354
REMARK  144  A    between atoms: _357  and  _359
REMARK  145  A    between atoms: _359  and  _360
REMARK  146  A    between atoms: _359  and  _362
REMARK  147  A    between atoms: _362  and  _363
REMARK  148  A    between atoms: _366  and  _368
REMARK  149  A    between atoms: _368  and  _369
REMARK  150  A    between atoms: _368  and  _371
REMARK  151  A    between atoms: _371  and  _372
REMARK  152  A    between atoms: _375  and  _377
REMARK  153  A    between atoms: _377  and  _378
REMARK  154  A    between atoms: _377  and  _380
REMARK  155  A    between atoms: _380  and  _381
REMARK  156  A    between atoms: _384  and  _386
REMARK  157  A    between atoms: _386  and  _387
REMARK  158  A    between atoms: _386  and  _389
REMARK  159  A    between atoms: _392  and  _394
REMARK  160  A    between atoms: _394  and  _395
REMARK  161  A    between atoms: _394  and  _397
REMARK  162  A    between atoms: _397  and  _398
REMARK  163  A    between atoms: _401  and  _403
REMARK  164  A    between atoms: _403  and  _404
REMARK  165  A    between atoms: _403  and  _406
REMARK  166  A    between atoms: _406  and  _407
REMARK  167  A    between atoms: _407  and  _408
REMARK  168  A    between atoms: _410  and  _412
REMARK  169  A    between atoms: _412  and  _413
REMARK  170  A    between atoms: _412  and  _415
REMARK  171  A    between atoms: _415  and  _416
REMARK  172  A    between atoms: _419  and  _421
REMARK  173  A    between atoms: _421  and  _422
REMARK  174  A    between atoms: _424  and  _426
REMARK  175  A    between atoms: _426  and  _427
REMARK  176  A    between atoms: _429  and  _431
REMARK  177  A    between atoms: _431  and  _432
REMARK  178  A    between atoms: _431  and  _434
REMARK  179  A    between atoms: _434  and  _435
REMARK  180  A    between atoms: _438  and  _440
REMARK  181  A    between atoms: _440  and  _441
REMARK  182  A    between atoms: _443  and  _445
REMARK  183  A    between atoms: _445  and  _446
REMARK  184  A    between atoms: _448  and  _450
REMARK  185  A    between atoms: _450  and  _451
REMARK  186  A    between atoms: _450  and  _453
REMARK  187  A    between atoms: _453  and  _454
REMARK  188  A    between atoms: _460  and  _462
REMARK  189  A    between atoms: _462  and  _463
REMARK  190  A    between atoms: _462  and  _465
REMARK  191  A    between atoms: _465  and  _466
REMARK  192  A    between atoms: _469  and  _471
REMARK  193  A    between atoms: _471  and  _472
REMARK  194  A    between atoms: _471  and  _474
REMARK  195  A    between atoms: _477  and  _479
REMARK  196  A    between atoms: _479  and  _480
REMARK  197  A    between atoms: _479  and  _482
REMARK  198  A    between atoms: _482  and  _483
REMARK  199  A    between atoms: _487  and  _488
REMARK  200  A    between atoms: _493  and  _495
REMARK  201  A    between atoms: _495  and  _496
REMARK  202  A    between atoms: _495  and  _498
REMARK  203  A    between atoms: _498  and  _499
REMARK  204  A    between atoms: _505  and  _506
REMARK  205  A    between atoms: _511  and  _513
REMARK  206  A    between atoms: _513  and  _514
REMARK  207  A    between atoms: _513  and  _516
REMARK  208  A    between atoms: _519  and  _521
REMARK  209  A    between atoms: _521  and  _522
REMARK  210  A    between atoms: _521  and  _524
REMARK  211  A    between atoms: _524  and  _525
REMARK  212  A    between atoms: _530  and  _532
REMARK  213  A    between atoms: _532  and  _533
REMARK  214  A    between atoms: _532  and  _535
REMARK  215  A    between atoms: _535  and  _536
REMARK  216  A    between atoms: _539  and  _541
REMARK  217  A    between atoms: _541  and  _542
REMARK  218  A    between atoms: _541  and  _544
REMARK  219  A    between atoms: _544  and  _545
REMARK  220  A    between atoms: _548  and  _550
REMARK  221  A    between atoms: _550  and  _551
REMARK  222  A    between atoms: _553  and  _555
REMARK  223  A    between atoms: _555  and  _556
REMARK  224  A    between atoms: _555  and  _558
REMARK  225  A    between atoms: _558  and  _559
REMARK  226  A    between atoms: _559  and  _560
REMARK  227  A    between atoms: _560  and  _561
REMARK  228  A    between atoms: _570  and  _572
REMARK  229  A    between atoms: _572  and  _573
REMARK  230  A    between atoms: _572  and  _575
REMARK  231  A    between atoms: _575  and  _576
REMARK                            x       y       z     vdW  Elec       q    Type
REMARK                         _______ _______ _______ _____ _____    ______ ____
ROOT
ATOM      1  O   HOH     1      17.067  -9.440  14.653  0.00  0.00    +0.000 OA
ENDROOT
TORSDOF 0
REMARK  Name = ../refined-set-2016/2fgv/2fgv_pocket.pdb
REMARK  231 active torsions:
REMARK  status: ('A' for Active; 'I' for Inactive)
REMARK    1  A    between atoms: _1  and  _3
REMARK    2  A    between atoms: _3  and  _4
REMARK    3  A    between atoms: _3  and  _6
REMARK    4  A    between atoms: _6  and  _7
REMARK    5  A    between atoms: _7  and  _8
REMARK    6  A    between atoms: _8  and  _9
REMARK    7  A    between atoms: _18  and  _20
REMARK    8  A    between atoms: _20  and  _21
REMARK    9  A    between atoms: _20  and  _23
REMARK   10  A    between atoms: _23  and  _24
REMARK   11  A    between atoms: _27  and  _29
REMARK   12  A    between atoms: _29  and  _30
REMARK   13  A    between atoms: _29  and  _32
REMARK   14  A    between atoms: _32  and  _33
REMARK   15  A    between atoms: _36  and  _38
REMARK   16  A    between atoms: _38  and  _39
REMARK   17  A    between atoms: _38  and  _41
REMARK   18  A    between atoms: _41  and  _42
REMARK   19  A    between atoms: _45  and  _47
REMARK   20  A    between atoms: _47  and  _48
REMARK   21  A    between atoms: _47  and  _50
REMARK   22  A    between atoms: _50  and  _51
REMARK   23  A    between atoms: _54  and  _56
REMARK   24  A    between atoms: _56  and  _57
REMARK   25  A    between atoms: _59  and  _61
REMARK   26  A    between atoms: _61  and  _62
REMARK   27  A    between atoms: _65  and  _67
REMARK   28  A    between atoms: _67  and  _68
REMARK   29  A    between atoms: _67  and  _70
REMARK   30  A    between atoms: _70  and  _71
REMARK   31  A    between atoms: _74  and  _76
REMARK   32  A    between atoms: _76  and  _77
REMARK   33  A    between atoms: _76  and  _79
REMARK   34  A    between atoms: _79  and  _80
REMARK   35  A    between atoms: _83  and  _85
REMARK   36  A    between atoms: _85  and  _86
REMARK   37  A    between atoms: _85  and  _88
REMARK   38  A    between atoms: _88  and  _89
REMARK   39  A    between atoms: _92  and  _94
REMARK   40  A    between atoms: _94  and  _95
REMARK   41  A    between atoms: _94  and  _97
REMARK   42  A    between atoms: _100  and  _102
REMARK   43  A    between atoms: _102  and  _103
REMARK   44  A    between atoms: _102  and  _105
REMARK   45  A    between atoms: _105  and  _106
REMARK   46  A    between atoms: _106  and  _107
REMARK   47  A    between atoms: _107  and  _108
REMARK   48  A    between atoms: _108  and  _109
REMARK   49  A    between atoms: _113  and  _115
REMARK   50  A    between atoms: _115  and  _116
REMARK   51  A    between atoms: _115  and  _118
REMARK   52  A    between atoms: _118  and  _119
REMARK   53  A    between atoms: _119  and  _120
REMARK   54  A    between atoms: _122  and  _124
REMARK   55  A    between atoms: _124  and  _125
REMARK   56  A    between atoms: _124  and  _127
REMARK   57  A    between atoms: _127  and  _128
REMARK   58  A    between atoms: _131  and  _133
REMARK   59  A    between atoms: _133  and  _134
REMARK   60  A    between atoms: _136  and  _138
REMARK   61  A    between atoms: _138  and  _139
REMARK   62  A    between atoms: _141  and  _143
REMARK   63  A    between atoms: _143  and  _144
REMARK   64  A    between atoms: _143  and  _146
REMARK   65  A    between atoms: _146  and  _147
REMARK   66  A    between atoms: _150  and  _152
REMARK   67  A    between atoms: _152  and  _153
REMARK   68  A    between atoms: _155  and  _157
REMARK   69  A    between atoms: _157  and  _158
REMARK   70  A    between atoms: _160  and  _162
REMARK   71  A    between atoms: _162  and  _163
REMARK   72  A    between atoms: _162  and  _165
REMARK   73  A    between atoms: _165  and  _166
REMARK   74  A    between atoms: _172  and  _174
REMARK   75  A    between atoms: _174  and  _175
REMARK   76  A    between atoms: _174  and  _177
REMARK   77  A    between atoms: _177  and  _178
REMARK   78  A    between atoms: _181  and  _183
REMARK   79  A    between atoms: _183  and  _184
REMARK   80  A    between atoms: _183  and  _186
REMARK   81  A    between atoms: _189  and  _191
REMARK   82  A    between atoms: _191  and  _192
REMARK   83  A    between atoms: _191  and  _194
REMARK   84  A    between atoms: _194  and  _195
REMARK   85  A    between atoms: _199  and  _200
REMARK   86  A    between atoms: _205  and  _207
REMARK   87  A    between atoms: _207  and  _208
REMARK   88  A    between atoms: _207  and  _210
REMARK   89  A    between atoms: _210  and  _211
REMARK   90  A    between atoms: _217  and  _218
REMARK   91  A    between atoms: _223  and  _225
REMARK   92  A    between atoms: _225  and  _226
REMARK   93  A    between atoms: _225  and  _228
REMARK   94  A    between atoms: _231  and  _233
REMARK   95  A    between atoms: _233  and  _234
REMARK   96  A    between atoms: _233  and  _236
REMARK   97  A    between atoms: _236  and  _237
REMARK   98  A    between atoms: _242  and  _244
REMARK   99  A    between atoms: _244  and  _245
REMARK  100  A    between atoms: _244  and  _247
REMARK  101  A    between atoms: _247  and  _248
REMARK  102  A    between atoms: _251  and  _253
REMARK  103  A    between atoms: _253  and  _254
REMARK  104  A    between atoms: _253  and  _256
REMARK  105  A    between atoms: _256  and  _257
REMARK  106  A    between atoms: _260  and  _262
REMARK  107  A    between atoms: _262  and  _263
REMARK  108  A    between atoms: _265  and  _267
REMARK  109  A    between atoms: _267  and  _268
REMARK  110  A    between atoms: _267  and  _270
REMARK  111  A    between atoms: _270  and  _271
REMARK  112  A    between atoms: _271  and  _272
REMARK  113  A    between atoms: _272  and  _273
REMARK  114  A    between atoms: _282  and  _284
REMARK  115  A    between atoms: _284  and  _285
REMARK  116  A    between atoms: _284  and  _287
REMARK  117  A    between atoms: _287  and  _288
REMARK  118  A    between atoms: _293  and  _295
REMARK  119  A    between atoms: _295  and  _296
REMARK  120  A    between atoms: _295  and  _298
REMARK  121  A    between atoms: _298  and  _299
REMARK  122  A    between atoms: _299  and  _300
REMARK  123  A    between atoms: _300  and  _301
REMARK  124  A    between atoms: _310  and  _312
REMARK  125  A    between atoms: _312  and  _313
REMARK  126  A    between atoms: _312  and  _315
REMARK  127  A    between atoms: _315  and  _316
REMARK  128  A    between atoms: _319  and  _321
REMARK  129  A    between atoms: _321  and  _322
REMARK  130  A    between atoms: _321  and  _324
REMARK  131  A    between atoms: _324  and  _325
REMARK  132  A    between atoms: _328  and  _330
REMARK  133  A    between atoms: _330  and  _331
REMARK  134  A    between atoms: _330  and  _333
REMARK  135  A    between atoms: _333  and  _334
REMARK  136  A    between atoms: _337  and  _339
REMARK  137  A    between atoms: _339  and  _340
REMARK  138  A    between atoms: _339  and  _342
REMARK  139  A    between atoms: _342  and  _343
REMARK  140  A    between atoms: _346  and  _348
REMARK  141  A    between atoms: _348  and  _349
REMARK  142  A    between atoms: _351  and  _353
REMARK  143  A    between atoms: _353  and  _354
REMARK  144  A    between atoms: _357  and  _359
REMARK  145  A    between atoms: _359  and  _360
REMARK  146  A    between atoms: _359  and  _362
REMARK  147  A    between atoms: _362  and  _363
REMARK  148  A    between atoms: _366  and  _368
REMARK  149  A    between atoms: _368  and  _369
REMARK  150  A    between atoms: _368  and  _371
REMARK  151  A    between atoms: _371  and  _372
REMARK  152  A    between atoms: _375  and  _377
REMARK  153  A    between atoms: _377  and  _378
REMARK  154  A    between atoms: _377  and  _380
REMARK  155  A    between atoms: _380  and  _381
REMARK  156  A    between atoms: _384  and  _386
REMARK  157  A    between atoms: _386  and  _387
REMARK  158  A    between atoms: _386  and  _389
REMARK  159  A    between atoms: _392  and  _394
REMARK  160  A    between atoms: _394  and  _395
REMARK  161  A    between atoms: _394  and  _397
REMARK  162  A    between atoms: _397  and  _398
REMARK  163  A    between atoms: _401  and  _403
REMARK  164  A    between atoms: _403  and  _404
REMARK  165  A    between atoms: _403  and  _406
REMARK  166  A    between atoms: _406  and  _407
REMARK  167  A    between atoms: _407  and  _408
REMARK  168  A    between atoms: _410  and  _412
REMARK  169  A    between atoms: _412  and  _413
REMARK  170  A    between atoms: _412  and  _415
REMARK  171  A    between atoms: _415  and  _416
REMARK  172  A    between atoms: _419  and  _421
REMARK  173  A    between atoms: _421  and  _422
REMARK  174  A    between atoms: _424  and  _426
REMARK  175  A    between atoms: _426  and  _427
REMARK  176  A    between atoms: _429  and  _431
REMARK  177  A    between atoms: _431  and  _432
REMARK  178  A    between atoms: _431  and  _434
REMARK  179  A    between atoms: _434  and  _435
REMARK  180  A    between atoms: _438  and  _440
REMARK  181  A    between atoms: _440  and  _441
REMARK  182  A    between atoms: _443  and  _445
REMARK  183  A    between atoms: _445  and  _446
REMARK  184  A    between atoms: _448  and  _450
REMARK  185  A    between atoms: _450  and  _451
REMARK  186  A    between atoms: _450  and  _453
REMARK  187  A    between atoms: _453  and  _454
REMARK  188  A    between atoms: _460  and  _462
REMARK  189  A    between atoms: _462  and  _463
REMARK  190  A    between atoms: _462  and  _465
REMARK  191  A    between atoms: _465  and  _466
REMARK  192  A    between atoms: _469  and  _471
REMARK  193  A    between atoms: _471  and  _472
REMARK  194  A    between atoms: _471  and  _474
REMARK  195  A    between atoms: _477  and  _479
REMARK  196  A    between atoms: _479  and  _480
REMARK  197  A    between atoms: _479  and  _482
REMARK  198  A    between atoms: _482  and  _483
REMARK  199  A    between atoms: _487  and  _488
REMARK  200  A    between atoms: _493  and  _495
REMARK  201  A    between atoms: _495  and  _496
REMARK  202  A    between atoms: _495  and  _498
REMARK  203  A    between atoms: _498  and  _499
REMARK  204  A    between atoms: _505  and  _506
REMARK  205  A    between atoms: _511  and  _513
REMARK  206  A    between atoms: _513  and  _514
REMARK  207  A    between atoms: _513  and  _516
REMARK  208  A    between atoms: _519  and  _521
REMARK  209  A    between atoms: _521  and  _522
REMARK  210  A    between atoms: _521  and  _524
REMARK  211  A    between atoms: _524  and  _525
REMARK  212  A    between atoms: _530  and  _532
REMARK  213  A    between atoms: _532  and  _533
REMARK  214  A    between atoms: _532  and  _535
REMARK  215  A    between atoms: _535  and  _536
REMARK  216  A    between atoms: _539  and  _541
REMARK  217  A    between atoms: _541  and  _542
REMARK  218  A    between atoms: _541  and  _544
REMARK  219  A    between atoms: _544  and  _545
REMARK  220  A    between atoms: _548  and  _550
REMARK  221  A    between atoms: _550  and  _551
REMARK  222  A    between atoms: _553  and  _555
REMARK  223  A    between atoms: _555  and  _556
REMARK  224  A    between atoms: _555  and  _558
REMARK  225  A    between atoms: _558  and  _559
REMARK  226  A    between atoms: _559  and  _560
REMARK  227  A    between atoms: _560  and  _561
REMARK  228  A    between atoms: _570  and  _572
REMARK  229  A    between atoms: _572  and  _573
REMARK  230  A    between atoms: _572  and  _575
REMARK  231  A    between atoms: _575  and  _576
REMARK                            x       y       z     vdW  Elec       q    Type
REMARK                         _______ _______ _______ _____ _____    ______ ____
ROOT
ATOM      1  O   HOH     1      10.106  -7.691   8.621  0.00  0.00    +0.000 OA
ENDROOT
TORSDOF 0
REMARK  Name = ../refined-set-2016/2fgv/2fgv_pocket.pdb
REMARK  231 active torsions:
REMARK  status: ('A' for Active; 'I' for Inactive)
REMARK    1  A    between atoms: _1  and  _3
REMARK    2  A    between atoms: _3  and  _4
REMARK    3  A    between atoms: _3  and  _6
REMARK    4  A    between atoms: _6  and  _7
REMARK    5  A    between atoms: _7  and  _8
REMARK    6  A    between atoms: _8  and  _9
REMARK    7  A    between atoms: _18  and  _20
REMARK    8  A    between atoms: _20  and  _21
REMARK    9  A    between atoms: _20  and  _23
REMARK   10  A    between atoms: _23  and  _24
REMARK   11  A    between atoms: _27  and  _29
REMARK   12  A    between atoms: _29  and  _30
REMARK   13  A    between atoms: _29  and  _32
REMARK   14  A    between atoms: _32  and  _33
REMARK   15  A    between atoms: _36  and  _38
REMARK   16  A    between atoms: _38  and  _39
REMARK   17  A    between atoms: _38  and  _41
REMARK   18  A    between atoms: _41  and  _42
REMARK   19  A    between atoms: _45  and  _47
REMARK   20  A    between atoms: _47  and  _48
REMARK   21  A    between atoms: _47  and  _50
REMARK   22  A    between atoms: _50  and  _51
REMARK   23  A    between atoms: _54  and  _56
REMARK   24  A    between atoms: _56  and  _57
REMARK   25  A    between atoms: _59  and  _61
REMARK   26  A    between atoms: _61  and  _62
REMARK   27  A    between atoms: _65  and  _67
REMARK   28  A    between atoms: _67  and  _68
REMARK   29  A    between atoms: _67  and  _70
REMARK   30  A    between atoms: _70  and  _71
REMARK   31  A    between atoms: _74  and  _76
REMARK   32  A    between atoms: _76  and  _77
REMARK   33  A    between atoms: _76  and  _79
REMARK   34  A    between atoms: _79  and  _80
REMARK   35  A    between atoms: _83  and  _85
REMARK   36  A    between atoms: _85  and  _86
REMARK   37  A    between atoms: _85  and  _88
REMARK   38  A    between atoms: _88  and  _89
REMARK   39  A    between atoms: _92  and  _94
REMARK   40  A    between atoms: _94  and  _95
REMARK   41  A    between atoms: _94  and  _97
REMARK   42  A    between atoms: _100  and  _102
REMARK   43  A    between atoms: _102  and  _103
REMARK   44  A    between atoms: _102  and  _105
REMARK   45  A    between atoms: _105  and  _106
REMARK   46  A    between atoms: _106  and  _107
REMARK   47  A    between atoms: _107  and  _108
REMARK   48  A    between atoms: _108  and  _109
REMARK   49  A    between atoms: _113  and  _115
REMARK   50  A    between atoms: _115  and  _116
REMARK   51  A    between atoms: _115  and  _118
REMARK   52  A    between atoms: _118  and  _119
REMARK   53  A    between atoms: _119  and  _120
REMARK   54  A    between atoms: _122  and  _124
REMARK   55  A    between atoms: _124  and  _125
REMARK   56  A    between atoms: _124  and  _127
REMARK   57  A    between atoms: _127  and  _128
REMARK   58  A    between atoms: _131  and  _133
REMARK   59  A    between atoms: _133  and  _134
REMARK   60  A    between atoms: _136  and  _138
REMARK   61  A    between atoms: _138  and  _139
REMARK   62  A    between atoms: _141  and  _143
REMARK   63  A    between atoms: _143  and  _144
REMARK   64  A    between atoms: _143  and  _146
REMARK   65  A    between atoms: _146  and  _147
REMARK   66  A    between atoms: _150  and  _152
REMARK   67  A    between atoms: _152  and  _153
REMARK   68  A    between atoms: _155  and  _157
REMARK   69  A    between atoms: _157  and  _158
REMARK   70  A    between atoms: _160  and  _162
REMARK   71  A    between atoms: _162  and  _163
REMARK   72  A    between atoms: _162  and  _165
REMARK   73  A    between atoms: _165  and  _166
REMARK   74  A    between atoms: _172  and  _174
REMARK   75  A    between atoms: _174  and  _175
REMARK   76  A    between atoms: _174  and  _177
REMARK   77  A    between atoms: _177  and  _178
REMARK   78  A    between atoms: _181  and  _183
REMARK   79  A    between atoms: _183  and  _184
REMARK   80  A    between atoms: _183  and  _186
REMARK   81  A    between atoms: _189  and  _191
REMARK   82  A    between atoms: _191  and  _192
REMARK   83  A    between atoms: _191  and  _194
REMARK   84  A    between atoms: _194  and  _195
REMARK   85  A    between atoms: _199  and  _200
REMARK   86  A    between atoms: _205  and  _207
REMARK   87  A    between atoms: _207  and  _208
REMARK   88  A    between atoms: _207  and  _210
REMARK   89  A    between atoms: _210  and  _211
REMARK   90  A    between atoms: _217  and  _218
REMARK   91  A    between atoms: _223  and  _225
REMARK   92  A    between atoms: _225  and  _226
REMARK   93  A    between atoms: _225  and  _228
REMARK   94  A    between atoms: _231  and  _233
REMARK   95  A    between atoms: _233  and  _234
REMARK   96  A    between atoms: _233  and  _236
REMARK   97  A    between atoms: _236  and  _237
REMARK   98  A    between atoms: _242  and  _244
REMARK   99  A    between atoms: _244  and  _245
REMARK  100  A    between atoms: _244  and  _247
REMARK  101  A    between atoms: _247  and  _248
REMARK  102  A    between atoms: _251  and  _253
REMARK  103  A    between atoms: _253  and  _254
REMARK  104  A    between atoms: _253  and  _256
REMARK  105  A    between atoms: _256  and  _257
REMARK  106  A    between atoms: _260  and  _262
REMARK  107  A    between atoms: _262  and  _263
REMARK  108  A    between atoms: _265  and  _267
REMARK  109  A    between atoms: _267  and  _268
REMARK  110  A    between atoms: _267  and  _270
REMARK  111  A    between atoms: _270  and  _271
REMARK  112  A    between atoms: _271  and  _272
REMARK  113  A    between atoms: _272  and  _273
REMARK  114  A    between atoms: _282  and  _284
REMARK  115  A    between atoms: _284  and  _285
REMARK  116  A    between atoms: _284  and  _287
REMARK  117  A    between atoms: _287  and  _288
REMARK  118  A    between atoms: _293  and  _295
REMARK  119  A    between atoms: _295  and  _296
REMARK  120  A    between atoms: _295  and  _298
REMARK  121  A    between atoms: _298  and  _299
REMARK  122  A    between atoms: _299  and  _300
REMARK  123  A    between atoms: _300  and  _301
REMARK  124  A    between atoms: _310  and  _312
REMARK  125  A    between atoms: _312  and  _313
REMARK  126  A    between atoms: _312  and  _315
REMARK  127  A    between atoms: _315  and  _316
REMARK  128  A    between atoms: _319  and  _321
REMARK  129  A    between atoms: _321  and  _322
REMARK  130  A    between atoms: _321  and  _324
REMARK  131  A    between atoms: _324  and  _325
REMARK  132  A    between atoms: _328  and  _330
REMARK  133  A    between atoms: _330  and  _331
REMARK  134  A    between atoms: _330  and  _333
REMARK  135  A    between atoms: _333  and  _334
REMARK  136  A    between atoms: _337  and  _339
REMARK  137  A    between atoms: _339  and  _340
REMARK  138  A    between atoms: _339  and  _342
REMARK  139  A    between atoms: _342  and  _343
REMARK  140  A    between atoms: _346  and  _348
REMARK  141  A    between atoms: _348  and  _349
REMARK  142  A    between atoms: _351  and  _353
REMARK  143  A    between atoms: _353  and  _354
REMARK  144  A    between atoms: _357  and  _359
REMARK  145  A    between atoms: _359  and  _360
REMARK  146  A    between atoms: _359  and  _362
REMARK  147  A    between atoms: _362  and  _363
REMARK  148  A    between atoms: _366  and  _368
REMARK  149  A    between atoms: _368  and  _369
REMARK  150  A    between atoms: _368  and  _371
REMARK  151  A    between atoms: _371  and  _372
REMARK  152  A    between atoms: _375  and  _377
REMARK  153  A    between atoms: _377  and  _378
REMARK  154  A    between atoms: _377  and  _380
REMARK  155  A    between atoms: _380  and  _381
REMARK  156  A    between atoms: _384  and  _386
REMARK  157  A    between atoms: _386  and  _387
REMARK  158  A    between atoms: _386  and  _389
REMARK  159  A    between atoms: _392  and  _394
REMARK  160  A    between atoms: _394  and  _395
REMARK  161  A    between atoms: _394  and  _397
REMARK  162  A    between atoms: _397  and  _398
REMARK  163  A    between atoms: _401  and  _403
REMARK  164  A    between atoms: _403  and  _404
REMARK  165  A    between atoms: _403  and  _406
REMARK  166  A    between atoms: _406  and  _407
REMARK  167  A    between atoms: _407  and  _408
REMARK  168  A    between atoms: _410  and  _412
REMARK  169  A    between atoms: _412  and  _413
REMARK  170  A    between atoms: _412  and  _415
REMARK  171  A    between atoms: _415  and  _416
REMARK  172  A    between atoms: _419  and  _421
REMARK  173  A    between atoms: _421  and  _422
REMARK  174  A    between atoms: _424  and  _426
REMARK  175  A    between atoms: _426  and  _427
REMARK  176  A    between atoms: _429  and  _431
REMARK  177  A    between atoms: _431  and  _432
REMARK  178  A    between atoms: _431  and  _434
REMARK  179  A    between atoms: _434  and  _435
REMARK  180  A    between atoms: _438  and  _440
REMARK  181  A    between atoms: _440  and  _441
REMARK  182  A    between atoms: _443  and  _445
REMARK  183  A    between atoms: _445  and  _446
REMARK  184  A    between atoms: _448  and  _450
REMARK  185  A    between atoms: _450  and  _451
REMARK  186  A    between atoms: _450  and  _453
REMARK  187  A    between atoms: _453  and  _454
REMARK  188  A    between atoms: _460  and  _462
REMARK  189  A    between atoms: _462  and  _463
REMARK  190  A    between atoms: _462  and  _465
REMARK  191  A    between atoms: _465  and  _466
REMARK  192  A    between atoms: _469  and  _471
REMARK  193  A    between atoms: _471  and  _472
REMARK  194  A    between atoms: _471  and  _474
REMARK  195  A    between atoms: _477  and  _479
REMARK  196  A    between atoms: _479  and  _480
REMARK  197  A    between atoms: _479  and  _482
REMARK  198  A    between atoms: _482  and  _483
REMARK  199  A    between atoms: _487  and  _488
REMARK  200  A    between atoms: _493  and  _495
REMARK  201  A    between atoms: _495  and  _496
REMARK  202  A    between atoms: _495  and  _498
REMARK  203  A    between atoms: _498  and  _499
REMARK  204  A    between atoms: _505  and  _506
REMARK  205  A    between atoms: _511  and  _513
REMARK  206  A    between atoms: _513  and  _514
REMARK  207  A    between atoms: _513  and  _516
REMARK  208  A    between atoms: _519  and  _521
REMARK  209  A    between atoms: _521  and  _522
REMARK  210  A    between atoms: _521  and  _524
REMARK  211  A    between atoms: _524  and  _525
REMARK  212  A    between atoms: _530  and  _532
REMARK  213  A    between atoms: _532  and  _533
REMARK  214  A    between atoms: _532  and  _535
REMARK  215  A    between atoms: _535  and  _536
REMARK  216  A    between atoms: _539  and  _541
REMARK  217  A    between atoms: _541  and  _542
REMARK  218  A    between atoms: _541  and  _544
REMARK  219  A    between atoms: _544  and  _545
REMARK  220  A    between atoms: _548  and  _550
REMARK  221  A    between atoms: _550  and  _551
REMARK  222  A    between atoms: _553  and  _555
REMARK  223  A    between atoms: _555  and  _556
REMARK  224  A    between atoms: _555  and  _558
REMARK  225  A    between atoms: _558  and  _559
REMARK  226  A    between atoms: _559  and  _560
REMARK  227  A    between atoms: _560  and  _561
REMARK  228  A    between atoms: _570  and  _572
REMARK  229  A    between atoms: _572  and  _573
REMARK  230  A    between atoms: _572  and  _575
REMARK  231  A    between atoms: _575  and  _576
REMARK                            x       y       z     vdW  Elec       q    Type
REMARK                         _______ _______ _______ _____ _____    ______ ____
ROOT
ATOM      1  O   HOH     1      13.731  -9.723   8.467  0.00  0.00    +0.000 OA
ENDROOT
TORSDOF 0
REMARK  Name = ../refined-set-2016/2fgv/2fgv_pocket.pdb
REMARK  231 active torsions:
REMARK  status: ('A' for Active; 'I' for Inactive)
REMARK    1  A    between atoms: _1  and  _3
REMARK    2  A    between atoms: _3  and  _4
REMARK    3  A    between atoms: _3  and  _6
REMARK    4  A    between atoms: _6  and  _7
REMARK    5  A    between atoms: _7  and  _8
REMARK    6  A    between atoms: _8  and  _9
REMARK    7  A    between atoms: _18  and  _20
REMARK    8  A    between atoms: _20  and  _21
REMARK    9  A    between atoms: _20  and  _23
REMARK   10  A    between atoms: _23  and  _24
REMARK   11  A    between atoms: _27  and  _29
REMARK   12  A    between atoms: _29  and  _30
REMARK   13  A    between atoms: _29  and  _32
REMARK   14  A    between atoms: _32  and  _33
REMARK   15  A    between atoms: _36  and  _38
REMARK   16  A    between atoms: _38  and  _39
REMARK   17  A    between atoms: _38  and  _41
REMARK   18  A    between atoms: _41  and  _42
REMARK   19  A    between atoms: _45  and  _47
REMARK   20  A    between atoms: _47  and  _48
REMARK   21  A    between atoms: _47  and  _50
REMARK   22  A    between atoms: _50  and  _51
REMARK   23  A    between atoms: _54  and  _56
REMARK   24  A    between atoms: _56  and  _57
REMARK   25  A    between atoms: _59  and  _61
REMARK   26  A    between atoms: _61  and  _62
REMARK   27  A    between atoms: _65  and  _67
REMARK   28  A    between atoms: _67  and  _68
REMARK   29  A    between atoms: _67  and  _70
REMARK   30  A    between atoms: _70  and  _71
REMARK   31  A    between atoms: _74  and  _76
REMARK   32  A    between atoms: _76  and  _77
REMARK   33  A    between atoms: _76  and  _79
REMARK   34  A    between atoms: _79  and  _80
REMARK   35  A    between atoms: _83  and  _85
REMARK   36  A    between atoms: _85  and  _86
REMARK   37  A    between atoms: _85  and  _88
REMARK   38  A    between atoms: _88  and  _89
REMARK   39  A    between atoms: _92  and  _94
REMARK   40  A    between atoms: _94  and  _95
REMARK   41  A    between atoms: _94  and  _97
REMARK   42  A    between atoms: _100  and  _102
REMARK   43  A    between atoms: _102  and  _103
REMARK   44  A    between atoms: _102  and  _105
REMARK   45  A    between atoms: _105  and  _106
REMARK   46  A    between atoms: _106  and  _107
REMARK   47  A    between atoms: _107  and  _108
REMARK   48  A    between atoms: _108  and  _109
REMARK   49  A    between atoms: _113  and  _115
REMARK   50  A    between atoms: _115  and  _116
REMARK   51  A    between atoms: _115  and  _118
REMARK   52  A    between atoms: _118  and  _119
REMARK   53  A    between atoms: _119  and  _120
REMARK   54  A    between atoms: _122  and  _124
REMARK   55  A    between atoms: _124  and  _125
REMARK   56  A    between atoms: _124  and  _127
REMARK   57  A    between atoms: _127  and  _128
REMARK   58  A    between atoms: _131  and  _133
REMARK   59  A    between atoms: _133  and  _134
REMARK   60  A    between atoms: _136  and  _138
REMARK   61  A    between atoms: _138  and  _139
REMARK   62  A    between atoms: _141  and  _143
REMARK   63  A    between atoms: _143  and  _144
REMARK   64  A    between atoms: _143  and  _146
REMARK   65  A    between atoms: _146  and  _147
REMARK   66  A    between atoms: _150  and  _152
REMARK   67  A    between atoms: _152  and  _153
REMARK   68  A    between atoms: _155  and  _157
REMARK   69  A    between atoms: _157  and  _158
REMARK   70  A    between atoms: _160  and  _162
REMARK   71  A    between atoms: _162  and  _163
REMARK   72  A    between atoms: _162  and  _165
REMARK   73  A    between atoms: _165  and  _166
REMARK   74  A    between atoms: _172  and  _174
REMARK   75  A    between atoms: _174  and  _175
REMARK   76  A    between atoms: _174  and  _177
REMARK   77  A    between atoms: _177  and  _178
REMARK   78  A    between atoms: _181  and  _183
REMARK   79  A    between atoms: _183  and  _184
REMARK   80  A    between atoms: _183  and  _186
REMARK   81  A    between atoms: _189  and  _191
REMARK   82  A    between atoms: _191  and  _192
REMARK   83  A    between atoms: _191  and  _194
REMARK   84  A    between atoms: _194  and  _195
REMARK   85  A    between atoms: _199  and  _200
REMARK   86  A    between atoms: _205  and  _207
REMARK   87  A    between atoms: _207  and  _208
REMARK   88  A    between atoms: _207  and  _210
REMARK   89  A    between atoms: _210  and  _211
REMARK   90  A    between atoms: _217  and  _218
REMARK   91  A    between atoms: _223  and  _225
REMARK   92  A    between atoms: _225  and  _226
REMARK   93  A    between atoms: _225  and  _228
REMARK   94  A    between atoms: _231  and  _233
REMARK   95  A    between atoms: _233  and  _234
REMARK   96  A    between atoms: _233  and  _236
REMARK   97  A    between atoms: _236  and  _237
REMARK   98  A    between atoms: _242  and  _244
REMARK   99  A    between atoms: _244  and  _245
REMARK  100  A    between atoms: _244  and  _247
REMARK  101  A    between atoms: _247  and  _248
REMARK  102  A    between atoms: _251  and  _253
REMARK  103  A    between atoms: _253  and  _254
REMARK  104  A    between atoms: _253  and  _256
REMARK  105  A    between atoms: _256  and  _257
REMARK  106  A    between atoms: _260  and  _262
REMARK  107  A    between atoms: _262  and  _263
REMARK  108  A    between atoms: _265  and  _267
REMARK  109  A    between atoms: _267  and  _268
REMARK  110  A    between atoms: _267  and  _270
REMARK  111  A    between atoms: _270  and  _271
REMARK  112  A    between atoms: _271  and  _272
REMARK  113  A    between atoms: _272  and  _273
REMARK  114  A    between atoms: _282  and  _284
REMARK  115  A    between atoms: _284  and  _285
REMARK  116  A    between atoms: _284  and  _287
REMARK  117  A    between atoms: _287  and  _288
REMARK  118  A    between atoms: _293  and  _295
REMARK  119  A    between atoms: _295  and  _296
REMARK  120  A    between atoms: _295  and  _298
REMARK  121  A    between atoms: _298  and  _299
REMARK  122  A    between atoms: _299  and  _300
REMARK  123  A    between atoms: _300  and  _301
REMARK  124  A    between atoms: _310  and  _312
REMARK  125  A    between atoms: _312  and  _313
REMARK  126  A    between atoms: _312  and  _315
REMARK  127  A    between atoms: _315  and  _316
REMARK  128  A    between atoms: _319  and  _321
REMARK  129  A    between atoms: _321  and  _322
REMARK  130  A    between atoms: _321  and  _324
REMARK  131  A    between atoms: _324  and  _325
REMARK  132  A    between atoms: _328  and  _330
REMARK  133  A    between atoms: _330  and  _331
REMARK  134  A    between atoms: _330  and  _333
REMARK  135  A    between atoms: _333  and  _334
REMARK  136  A    between atoms: _337  and  _339
REMARK  137  A    between atoms: _339  and  _340
REMARK  138  A    between atoms: _339  and  _342
REMARK  139  A    between atoms: _342  and  _343
REMARK  140  A    between atoms: _346  and  _348
REMARK  141  A    between atoms: _348  and  _349
REMARK  142  A    between atoms: _351  and  _353
REMARK  143  A    between atoms: _353  and  _354
REMARK  144  A    between atoms: _357  and  _359
REMARK  145  A    between atoms: _359  and  _360
REMARK  146  A    between atoms: _359  and  _362
REMARK  147  A    between atoms: _362  and  _363
REMARK  148  A    between atoms: _366  and  _368
REMARK  149  A    between atoms: _368  and  _369
REMARK  150  A    between atoms: _368  and  _371
REMARK  151  A    between atoms: _371  and  _372
REMARK  152  A    between atoms: _375  and  _377
REMARK  153  A    between atoms: _377  and  _378
REMARK  154  A    between atoms: _377  and  _380
REMARK  155  A    between atoms: _380  and  _381
REMARK  156  A    between atoms: _384  and  _386
REMARK  157  A    between atoms: _386  and  _387
REMARK  158  A    between atoms: _386  and  _389
REMARK  159  A    between atoms: _392  and  _394
REMARK  160  A    between atoms: _394  and  _395
REMARK  161  A    between atoms: _394  and  _397
REMARK  162  A    between atoms: _397  and  _398
REMARK  163  A    between atoms: _401  and  _403
REMARK  164  A    between atoms: _403  and  _404
REMARK  165  A    between atoms: _403  and  _406
REMARK  166  A    between atoms: _406  and  _407
REMARK  167  A    between atoms: _407  and  _408
REMARK  168  A    between atoms: _410  and  _412
REMARK  169  A    between atoms: _412  and  _413
REMARK  170  A    between atoms: _412  and  _415
REMARK  171  A    between atoms: _415  and  _416
REMARK  172  A    between atoms: _419  and  _421
REMARK  173  A    between atoms: _421  and  _422
REMARK  174  A    between atoms: _424  and  _426
REMARK  175  A    between atoms: _426  and  _427
REMARK  176  A    between atoms: _429  and  _431
REMARK  177  A    between atoms: _431  and  _432
REMARK  178  A    between atoms: _431  and  _434
REMARK  179  A    between atoms: _434  and  _435
REMARK  180  A    between atoms: _438  and  _440
REMARK  181  A    between atoms: _440  and  _441
REMARK  182  A    between atoms: _443  and  _445
REMARK  183  A    between atoms: _445  and  _446
REMARK  184  A    between atoms: _448  and  _450
REMARK  185  A    between atoms: _450  and  _451
REMARK  186  A    between atoms: _450  and  _453
REMARK  187  A    between atoms: _453  and  _454
REMARK  188  A    between atoms: _460  and  _462
REMARK  189  A    between atoms: _462  and  _463
REMARK  190  A    between atoms: _462  and  _465
REMARK  191  A    between atoms: _465  and  _466
REMARK  192  A    between atoms: _469  and  _471
REMARK  193  A    between atoms: _471  and  _472
REMARK  194  A    between atoms: _471  and  _474
REMARK  195  A    between atoms: _477  and  _479
REMARK  196  A    between atoms: _479  and  _480
REMARK  197  A    between atoms: _479  and  _482
REMARK  198  A    between atoms: _482  and  _483
REMARK  199  A    between atoms: _487  and  _488
REMARK  200  A    between atoms: _493  and  _495
REMARK  201  A    between atoms: _495  and  _496
REMARK  202  A    between atoms: _495  and  _498
REMARK  203  A    between atoms: _498  and  _499
REMARK  204  A    between atoms: _505  and  _506
REMARK  205  A    between atoms: _511  and  _513
REMARK  206  A    between atoms: _513  and  _514
REMARK  207  A    between atoms: _513  and  _516
REMARK  208  A    between atoms: _519  and  _521
REMARK  209  A    between atoms: _521  and  _522
REMARK  210  A    between atoms: _521  and  _524
REMARK  211  A    between atoms: _524  and  _525
REMARK  212  A    between atoms: _530  and  _532
REMARK  213  A    between atoms: _532  and  _533
REMARK  214  A    between atoms: _532  and  _535
REMARK  215  A    between atoms: _535  and  _536
REMARK  216  A    between atoms: _539  and  _541
REMARK  217  A    between atoms: _541  and  _542
REMARK  218  A    between atoms: _541  and  _544
REMARK  219  A    between atoms: _544  and  _545
REMARK  220  A    between atoms: _548  and  _550
REMARK  221  A    between atoms: _550  and  _551
REMARK  222  A    between atoms: _553  and  _555
REMARK  223  A    between atoms: _555  and  _556
REMARK  224  A    between atoms: _555  and  _558
REMARK  225  A    between atoms: _558  and  _559
REMARK  226  A    between atoms: _559  and  _560
REMARK  227  A    between atoms: _560  and  _561
REMARK  228  A    between atoms: _570  and  _572
REMARK  229  A    between atoms: _572  and  _573
REMARK  230  A    between atoms: _572  and  _575
REMARK  231  A    between atoms: _575  and  _576
REMARK                            x       y       z     vdW  Elec       q    Type
REMARK                         _______ _______ _______ _____ _____    ______ ____
ROOT
ATOM      1  O   HOH     1      23.983  -8.308  19.651  0.00  0.00    +0.000 OA
ENDROOT
TORSDOF 0
REMARK  Name = ../refined-set-2016/2fgv/2fgv_pocket.pdb
REMARK  231 active torsions:
REMARK  status: ('A' for Active; 'I' for Inactive)
REMARK    1  A    between atoms: _1  and  _3
REMARK    2  A    between atoms: _3  and  _4
REMARK    3  A    between atoms: _3  and  _6
REMARK    4  A    between atoms: _6  and  _7
REMARK    5  A    between atoms: _7  and  _8
REMARK    6  A    between atoms: _8  and  _9
REMARK    7  A    between atoms: _18  and  _20
REMARK    8  A    between atoms: _20  and  _21
REMARK    9  A    between atoms: _20  and  _23
REMARK   10  A    between atoms: _23  and  _24
REMARK   11  A    between atoms: _27  and  _29
REMARK   12  A    between atoms: _29  and  _30
REMARK   13  A    between atoms: _29  and  _32
REMARK   14  A    between atoms: _32  and  _33
REMARK   15  A    between atoms: _36  and  _38
REMARK   16  A    between atoms: _38  and  _39
REMARK   17  A    between atoms: _38  and  _41
REMARK   18  A    between atoms: _41  and  _42
REMARK   19  A    between atoms: _45  and  _47
REMARK   20  A    between atoms: _47  and  _48
REMARK   21  A    between atoms: _47  and  _50
REMARK   22  A    between atoms: _50  and  _51
REMARK   23  A    between atoms: _54  and  _56
REMARK   24  A    between atoms: _56  and  _57
REMARK   25  A    between atoms: _59  and  _61
REMARK   26  A    between atoms: _61  and  _62
REMARK   27  A    between atoms: _65  and  _67
REMARK   28  A    between atoms: _67  and  _68
REMARK   29  A    between atoms: _67  and  _70
REMARK   30  A    between atoms: _70  and  _71
REMARK   31  A    between atoms: _74  and  _76
REMARK   32  A    between atoms: _76  and  _77
REMARK   33  A    between atoms: _76  and  _79
REMARK   34  A    between atoms: _79  and  _80
REMARK   35  A    between atoms: _83  and  _85
REMARK   36  A    between atoms: _85  and  _86
REMARK   37  A    between atoms: _85  and  _88
REMARK   38  A    between atoms: _88  and  _89
REMARK   39  A    between atoms: _92  and  _94
REMARK   40  A    between atoms: _94  and  _95
REMARK   41  A    between atoms: _94  and  _97
REMARK   42  A    between atoms: _100  and  _102
REMARK   43  A    between atoms: _102  and  _103
REMARK   44  A    between atoms: _102  and  _105
REMARK   45  A    between atoms: _105  and  _106
REMARK   46  A    between atoms: _106  and  _107
REMARK   47  A    between atoms: _107  and  _108
REMARK   48  A    between atoms: _108  and  _109
REMARK   49  A    between atoms: _113  and  _115
REMARK   50  A    between atoms: _115  and  _116
REMARK   51  A    between atoms: _115  and  _118
REMARK   52  A    between atoms: _118  and  _119
REMARK   53  A    between atoms: _119  and  _120
REMARK   54  A    between atoms: _122  and  _124
REMARK   55  A    between atoms: _124  and  _125
REMARK   56  A    between atoms: _124  and  _127
REMARK   57  A    between atoms: _127  and  _128
REMARK   58  A    between atoms: _131  and  _133
REMARK   59  A    between atoms: _133  and  _134
REMARK   60  A    between atoms: _136  and  _138
REMARK   61  A    between atoms: _138  and  _139
REMARK   62  A    between atoms: _141  and  _143
REMARK   63  A    between atoms: _143  and  _144
REMARK   64  A    between atoms: _143  and  _146
REMARK   65  A    between atoms: _146  and  _147
REMARK   66  A    between atoms: _150  and  _152
REMARK   67  A    between atoms: _152  and  _153
REMARK   68  A    between atoms: _155  and  _157
REMARK   69  A    between atoms: _157  and  _158
REMARK   70  A    between atoms: _160  and  _162
REMARK   71  A    between atoms: _162  and  _163
REMARK   72  A    between atoms: _162  and  _165
REMARK   73  A    between atoms: _165  and  _166
REMARK   74  A    between atoms: _172  and  _174
REMARK   75  A    between atoms: _174  and  _175
REMARK   76  A    between atoms: _174  and  _177
REMARK   77  A    between atoms: _177  and  _178
REMARK   78  A    between atoms: _181  and  _183
REMARK   79  A    between atoms: _183  and  _184
REMARK   80  A    between atoms: _183  and  _186
REMARK   81  A    between atoms: _189  and  _191
REMARK   82  A    between atoms: _191  and  _192
REMARK   83  A    between atoms: _191  and  _194
REMARK   84  A    between atoms: _194  and  _195
REMARK   85  A    between atoms: _199  and  _200
REMARK   86  A    between atoms: _205  and  _207
REMARK   87  A    between atoms: _207  and  _208
REMARK   88  A    between atoms: _207  and  _210
REMARK   89  A    between atoms: _210  and  _211
REMARK   90  A    between atoms: _217  and  _218
REMARK   91  A    between atoms: _223  and  _225
REMARK   92  A    between atoms: _225  and  _226
REMARK   93  A    between atoms: _225  and  _228
REMARK   94  A    between atoms: _231  and  _233
REMARK   95  A    between atoms: _233  and  _234
REMARK   96  A    between atoms: _233  and  _236
REMARK   97  A    between atoms: _236  and  _237
REMARK   98  A    between atoms: _242  and  _244
REMARK   99  A    between atoms: _244  and  _245
REMARK  100  A    between atoms: _244  and  _247
REMARK  101  A    between atoms: _247  and  _248
REMARK  102  A    between atoms: _251  and  _253
REMARK  103  A    between atoms: _253  and  _254
REMARK  104  A    between atoms: _253  and  _256
REMARK  105  A    between atoms: _256  and  _257
REMARK  106  A    between atoms: _260  and  _262
REMARK  107  A    between atoms: _262  and  _263
REMARK  108  A    between atoms: _265  and  _267
REMARK  109  A    between atoms: _267  and  _268
REMARK  110  A    between atoms: _267  and  _270
REMARK  111  A    between atoms: _270  and  _271
REMARK  112  A    between atoms: _271  and  _272
REMARK  113  A    between atoms: _272  and  _273
REMARK  114  A    between atoms: _282  and  _284
REMARK  115  A    between atoms: _284  and  _285
REMARK  116  A    between atoms: _284  and  _287
REMARK  117  A    between atoms: _287  and  _288
REMARK  118  A    between atoms: _293  and  _295
REMARK  119  A    between atoms: _295  and  _296
REMARK  120  A    between atoms: _295  and  _298
REMARK  121  A    between atoms: _298  and  _299
REMARK  122  A    between atoms: _299  and  _300
REMARK  123  A    between atoms: _300  and  _301
REMARK  124  A    between atoms: _310  and  _312
REMARK  125  A    between atoms: _312  and  _313
REMARK  126  A    between atoms: _312  and  _315
REMARK  127  A    between atoms: _315  and  _316
REMARK  128  A    between atoms: _319  and  _321
REMARK  129  A    between atoms: _321  and  _322
REMARK  130  A    between atoms: _321  and  _324
REMARK  131  A    between atoms: _324  and  _325
REMARK  132  A    between atoms: _328  and  _330
REMARK  133  A    between atoms: _330  and  _331
REMARK  134  A    between atoms: _330  and  _333
REMARK  135  A    between atoms: _333  and  _334
REMARK  136  A    between atoms: _337  and  _339
REMARK  137  A    between atoms: _339  and  _340
REMARK  138  A    between atoms: _339  and  _342
REMARK  139  A    between atoms: _342  and  _343
REMARK  140  A    between atoms: _346  and  _348
REMARK  141  A    between atoms: _348  and  _349
REMARK  142  A    between atoms: _351  and  _353
REMARK  143  A    between atoms: _353  and  _354
REMARK  144  A    between atoms: _357  and  _359
REMARK  145  A    between atoms: _359  and  _360
REMARK  146  A    between atoms: _359  and  _362
REMARK  147  A    between atoms: _362  and  _363
REMARK  148  A    between atoms: _366  and  _368
REMARK  149  A    between atoms: _368  and  _369
REMARK  150  A    between atoms: _368  and  _371
REMARK  151  A    between atoms: _371  and  _372
REMARK  152  A    between atoms: _375  and  _377
REMARK  153  A    between atoms: _377  and  _378
REMARK  154  A    between atoms: _377  and  _380
REMARK  155  A    between atoms: _380  and  _381
REMARK  156  A    between atoms: _384  and  _386
REMARK  157  A    between atoms: _386  and  _387
REMARK  158  A    between atoms: _386  and  _389
REMARK  159  A    between atoms: _392  and  _394
REMARK  160  A    between atoms: _394  and  _395
REMARK  161  A    between atoms: _394  and  _397
REMARK  162  A    between atoms: _397  and  _398
REMARK  163  A    between atoms: _401  and  _403
REMARK  164  A    between atoms: _403  and  _404
REMARK  165  A    between atoms: _403  and  _406
REMARK  166  A    between atoms: _406  and  _407
REMARK  167  A    between atoms: _407  and  _408
REMARK  168  A    between atoms: _410  and  _412
REMARK  169  A    between atoms: _412  and  _413
REMARK  170  A    between atoms: _412  and  _415
REMARK  171  A    between atoms: _415  and  _416
REMARK  172  A    between atoms: _419  and  _421
REMARK  173  A    between atoms: _421  and  _422
REMARK  174  A    between atoms: _424  and  _426
REMARK  175  A    between atoms: _426  and  _427
REMARK  176  A    between atoms: _429  and  _431
REMARK  177  A    between atoms: _431  and  _432
REMARK  178  A    between atoms: _431  and  _434
REMARK  179  A    between atoms: _434  and  _435
REMARK  180  A    between atoms: _438  and  _440
REMARK  181  A    between atoms: _440  and  _441
REMARK  182  A    between atoms: _443  and  _445
REMARK  183  A    between atoms: _445  and  _446
REMARK  184  A    between atoms: _448  and  _450
REMARK  185  A    between atoms: _450  and  _451
REMARK  186  A    between atoms: _450  and  _453
REMARK  187  A    between atoms: _453  and  _454
REMARK  188  A    between atoms: _460  and  _462
REMARK  189  A    between atoms: _462  and  _463
REMARK  190  A    between atoms: _462  and  _465
REMARK  191  A    between atoms: _465  and  _466
REMARK  192  A    between atoms: _469  and  _471
REMARK  193  A    between atoms: _471  and  _472
REMARK  194  A    between atoms: _471  and  _474
REMARK  195  A    between atoms: _477  and  _479
REMARK  196  A    between atoms: _479  and  _480
REMARK  197  A    between atoms: _479  and  _482
REMARK  198  A    between atoms: _482  and  _483
REMARK  199  A    between atoms: _487  and  _488
REMARK  200  A    between atoms: _493  and  _495
REMARK  201  A    between atoms: _495  and  _496
REMARK  202  A    between atoms: _495  and  _498
REMARK  203  A    between atoms: _498  and  _499
REMARK  204  A    between atoms: _505  and  _506
REMARK  205  A    between atoms: _511  and  _513
REMARK  206  A    between atoms: _513  and  _514
REMARK  207  A    between atoms: _513  and  _516
REMARK  208  A    between atoms: _519  and  _521
REMARK  209  A    between atoms: _521  and  _522
REMARK  210  A    between atoms: _521  and  _524
REMARK  211  A    between atoms: _524  and  _525
REMARK  212  A    between atoms: _530  and  _532
REMARK  213  A    between atoms: _532  and  _533
REMARK  214  A    between atoms: _532  and  _535
REMARK  215  A    between atoms: _535  and  _536
REMARK  216  A    between atoms: _539  and  _541
REMARK  217  A    between atoms: _541  and  _542
REMARK  218  A    between atoms: _541  and  _544
REMARK  219  A    between atoms: _544  and  _545
REMARK  220  A    between atoms: _548  and  _550
REMARK  221  A    between atoms: _550  and  _551
REMARK  222  A    between atoms: _553  and  _555
REMARK  223  A    between atoms: _555  and  _556
REMARK  224  A    between atoms: _555  and  _558
REMARK  225  A    between atoms: _558  and  _559
REMARK  226  A    between atoms: _559  and  _560
REMARK  227  A    between atoms: _560  and  _561
REMARK  228  A    between atoms: _570  and  _572
REMARK  229  A    between atoms: _572  and  _573
REMARK  230  A    between atoms: _572  and  _575
REMARK  231  A    between atoms: _575  and  _576
REMARK                            x       y       z     vdW  Elec       q    Type
REMARK                         _______ _______ _______ _____ _____    ______ ____
ROOT
ATOM      1  O   HOH     1      16.434 -10.261  10.148  0.00  0.00    +0.000 OA
ENDROOT
TORSDOF 0
REMARK  Name = ../refined-set-2016/2fgv/2fgv_pocket.pdb
REMARK  231 active torsions:
REMARK  status: ('A' for Active; 'I' for Inactive)
REMARK    1  A    between atoms: _1  and  _3
REMARK    2  A    between atoms: _3  and  _4
REMARK    3  A    between atoms: _3  and  _6
REMARK    4  A    between atoms: _6  and  _7
REMARK    5  A    between atoms: _7  and  _8
REMARK    6  A    between atoms: _8  and  _9
REMARK    7  A    between atoms: _18  and  _20
REMARK    8  A    between atoms: _20  and  _21
REMARK    9  A    between atoms: _20  and  _23
REMARK   10  A    between atoms: _23  and  _24
REMARK   11  A    between atoms: _27  and  _29
REMARK   12  A    between atoms: _29  and  _30
REMARK   13  A    between atoms: _29  and  _32
REMARK   14  A    between atoms: _32  and  _33
REMARK   15  A    between atoms: _36  and  _38
REMARK   16  A    between atoms: _38  and  _39
REMARK   17  A    between atoms: _38  and  _41
REMARK   18  A    between atoms: _41  and  _42
REMARK   19  A    between atoms: _45  and  _47
REMARK   20  A    between atoms: _47  and  _48
REMARK   21  A    between atoms: _47  and  _50
REMARK   22  A    between atoms: _50  and  _51
REMARK   23  A    between atoms: _54  and  _56
REMARK   24  A    between atoms: _56  and  _57
REMARK   25  A    between atoms: _59  and  _61
REMARK   26  A    between atoms: _61  and  _62
REMARK   27  A    between atoms: _65  and  _67
REMARK   28  A    between atoms: _67  and  _68
REMARK   29  A    between atoms: _67  and  _70
REMARK   30  A    between atoms: _70  and  _71
REMARK   31  A    between atoms: _74  and  _76
REMARK   32  A    between atoms: _76  and  _77
REMARK   33  A    between atoms: _76  and  _79
REMARK   34  A    between atoms: _79  and  _80
REMARK   35  A    between atoms: _83  and  _85
REMARK   36  A    between atoms: _85  and  _86
REMARK   37  A    between atoms: _85  and  _88
REMARK   38  A    between atoms: _88  and  _89
REMARK   39  A    between atoms: _92  and  _94
REMARK   40  A    between atoms: _94  and  _95
REMARK   41  A    between atoms: _94  and  _97
REMARK   42  A    between atoms: _100  and  _102
REMARK   43  A    between atoms: _102  and  _103
REMARK   44  A    between atoms: _102  and  _105
REMARK   45  A    between atoms: _105  and  _106
REMARK   46  A    between atoms: _106  and  _107
REMARK   47  A    between atoms: _107  and  _108
REMARK   48  A    between atoms: _108  and  _109
REMARK   49  A    between atoms: _113  and  _115
REMARK   50  A    between atoms: _115  and  _116
REMARK   51  A    between atoms: _115  and  _118
REMARK   52  A    between atoms: _118  and  _119
REMARK   53  A    between atoms: _119  and  _120
REMARK   54  A    between atoms: _122  and  _124
REMARK   55  A    between atoms: _124  and  _125
REMARK   56  A    between atoms: _124  and  _127
REMARK   57  A    between atoms: _127  and  _128
REMARK   58  A    between atoms: _131  and  _133
REMARK   59  A    between atoms: _133  and  _134
REMARK   60  A    between atoms: _136  and  _138
REMARK   61  A    between atoms: _138  and  _139
REMARK   62  A    between atoms: _141  and  _143
REMARK   63  A    between atoms: _143  and  _144
REMARK   64  A    between atoms: _143  and  _146
REMARK   65  A    between atoms: _146  and  _147
REMARK   66  A    between atoms: _150  and  _152
REMARK   67  A    between atoms: _152  and  _153
REMARK   68  A    between atoms: _155  and  _157
REMARK   69  A    between atoms: _157  and  _158
REMARK   70  A    between atoms: _160  and  _162
REMARK   71  A    between atoms: _162  and  _163
REMARK   72  A    between atoms: _162  and  _165
REMARK   73  A    between atoms: _165  and  _166
REMARK   74  A    between atoms: _172  and  _174
REMARK   75  A    between atoms: _174  and  _175
REMARK   76  A    between atoms: _174  and  _177
REMARK   77  A    between atoms: _177  and  _178
REMARK   78  A    between atoms: _181  and  _183
REMARK   79  A    between atoms: _183  and  _184
REMARK   80  A    between atoms: _183  and  _186
REMARK   81  A    between atoms: _189  and  _191
REMARK   82  A    between atoms: _191  and  _192
REMARK   83  A    between atoms: _191  and  _194
REMARK   84  A    between atoms: _194  and  _195
REMARK   85  A    between atoms: _199  and  _200
REMARK   86  A    between atoms: _205  and  _207
REMARK   87  A    between atoms: _207  and  _208
REMARK   88  A    between atoms: _207  and  _210
REMARK   89  A    between atoms: _210  and  _211
REMARK   90  A    between atoms: _217  and  _218
REMARK   91  A    between atoms: _223  and  _225
REMARK   92  A    between atoms: _225  and  _226
REMARK   93  A    between atoms: _225  and  _228
REMARK   94  A    between atoms: _231  and  _233
REMARK   95  A    between atoms: _233  and  _234
REMARK   96  A    between atoms: _233  and  _236
REMARK   97  A    between atoms: _236  and  _237
REMARK   98  A    between atoms: _242  and  _244
REMARK   99  A    between atoms: _244  and  _245
REMARK  100  A    between atoms: _244  and  _247
REMARK  101  A    between atoms: _247  and  _248
REMARK  102  A    between atoms: _251  and  _253
REMARK  103  A    between atoms: _253  and  _254
REMARK  104  A    between atoms: _253  and  _256
REMARK  105  A    between atoms: _256  and  _257
REMARK  106  A    between atoms: _260  and  _262
REMARK  107  A    between atoms: _262  and  _263
REMARK  108  A    between atoms: _265  and  _267
REMARK  109  A    between atoms: _267  and  _268
REMARK  110  A    between atoms: _267  and  _270
REMARK  111  A    between atoms: _270  and  _271
REMARK  112  A    between atoms: _271  and  _272
REMARK  113  A    between atoms: _272  and  _273
REMARK  114  A    between atoms: _282  and  _284
REMARK  115  A    between atoms: _284  and  _285
REMARK  116  A    between atoms: _284  and  _287
REMARK  117  A    between atoms: _287  and  _288
REMARK  118  A    between atoms: _293  and  _295
REMARK  119  A    between atoms: _295  and  _296
REMARK  120  A    between atoms: _295  and  _298
REMARK  121  A    between atoms: _298  and  _299
REMARK  122  A    between atoms: _299  and  _300
REMARK  123  A    between atoms: _300  and  _301
REMARK  124  A    between atoms: _310  and  _312
REMARK  125  A    between atoms: _312  and  _313
REMARK  126  A    between atoms: _312  and  _315
REMARK  127  A    between atoms: _315  and  _316
REMARK  128  A    between atoms: _319  and  _321
REMARK  129  A    between atoms: _321  and  _322
REMARK  130  A    between atoms: _321  and  _324
REMARK  131  A    between atoms: _324  and  _325
REMARK  132  A    between atoms: _328  and  _330
REMARK  133  A    between atoms: _330  and  _331
REMARK  134  A    between atoms: _330  and  _333
REMARK  135  A    between atoms: _333  and  _334
REMARK  136  A    between atoms: _337  and  _339
REMARK  137  A    between atoms: _339  and  _340
REMARK  138  A    between atoms: _339  and  _342
REMARK  139  A    between atoms: _342  and  _343
REMARK  140  A    between atoms: _346  and  _348
REMARK  141  A    between atoms: _348  and  _349
REMARK  142  A    between atoms: _351  and  _353
REMARK  143  A    between atoms: _353  and  _354
REMARK  144  A    between atoms: _357  and  _359
REMARK  145  A    between atoms: _359  and  _360
REMARK  146  A    between atoms: _359  and  _362
REMARK  147  A    between atoms: _362  and  _363
REMARK  148  A    between atoms: _366  and  _368
REMARK  149  A    between atoms: _368  and  _369
REMARK  150  A    between atoms: _368  and  _371
REMARK  151  A    between atoms: _371  and  _372
REMARK  152  A    between atoms: _375  and  _377
REMARK  153  A    between atoms: _377  and  _378
REMARK  154  A    between atoms: _377  and  _380
REMARK  155  A    between atoms: _380  and  _381
REMARK  156  A    between atoms: _384  and  _386
REMARK  157  A    between atoms: _386  and  _387
REMARK  158  A    between atoms: _386  and  _389
REMARK  159  A    between atoms: _392  and  _394
REMARK  160  A    between atoms: _394  and  _395
REMARK  161  A    between atoms: _394  and  _397
REMARK  162  A    between atoms: _397  and  _398
REMARK  163  A    between atoms: _401  and  _403
REMARK  164  A    between atoms: _403  and  _404
REMARK  165  A    between atoms: _403  and  _406
REMARK  166  A    between atoms: _406  and  _407
REMARK  167  A    between atoms: _407  and  _408
REMARK  168  A    between atoms: _410  and  _412
REMARK  169  A    between atoms: _412  and  _413
REMARK  170  A    between atoms: _412  and  _415
REMARK  171  A    between atoms: _415  and  _416
REMARK  172  A    between atoms: _419  and  _421
REMARK  173  A    between atoms: _421  and  _422
REMARK  174  A    between atoms: _424  and  _426
REMARK  175  A    between atoms: _426  and  _427
REMARK  176  A    between atoms: _429  and  _431
REMARK  177  A    between atoms: _431  and  _432
REMARK  178  A    between atoms: _431  and  _434
REMARK  179  A    between atoms: _434  and  _435
REMARK  180  A    between atoms: _438  and  _440
REMARK  181  A    between atoms: _440  and  _441
REMARK  182  A    between atoms: _443  and  _445
REMARK  183  A    between atoms: _445  and  _446
REMARK  184  A    between atoms: _448  and  _450
REMARK  185  A    between atoms: _450  and  _451
REMARK  186  A    between atoms: _450  and  _453
REMARK  187  A    between atoms: _453  and  _454
REMARK  188  A    between atoms: _460  and  _462
REMARK  189  A    between atoms: _462  and  _463
REMARK  190  A    between atoms: _462  and  _465
REMARK  191  A    between atoms: _465  and  _466
REMARK  192  A    between atoms: _469  and  _471
REMARK  193  A    between atoms: _471  and  _472
REMARK  194  A    between atoms: _471  and  _474
REMARK  195  A    between atoms: _477  and  _479
REMARK  196  A    between atoms: _479  and  _480
REMARK  197  A    between atoms: _479  and  _482
REMARK  198  A    between atoms: _482  and  _483
REMARK  199  A    between atoms: _487  and  _488
REMARK  200  A    between atoms: _493  and  _495
REMARK  201  A    between atoms: _495  and  _496
REMARK  202  A    between atoms: _495  and  _498
REMARK  203  A    between atoms: _498  and  _499
REMARK  204  A    between atoms: _505  and  _506
REMARK  205  A    between atoms: _511  and  _513
REMARK  206  A    between atoms: _513  and  _514
REMARK  207  A    between atoms: _513  and  _516
REMARK  208  A    between atoms: _519  and  _521
REMARK  209  A    between atoms: _521  and  _522
REMARK  210  A    between atoms: _521  and  _524
REMARK  211  A    between atoms: _524  and  _525
REMARK  212  A    between atoms: _530  and  _532
REMARK  213  A    between atoms: _532  and  _533
REMARK  214  A    between atoms: _532  and  _535
REMARK  215  A    between atoms: _535  and  _536
REMARK  216  A    between atoms: _539  and  _541
REMARK  217  A    between atoms: _541  and  _542
REMARK  218  A    between atoms: _541  and  _544
REMARK  219  A    between atoms: _544  and  _545
REMARK  220  A    between atoms: _548  and  _550
REMARK  221  A    between atoms: _550  and  _551
REMARK  222  A    between atoms: _553  and  _555
REMARK  223  A    between atoms: _555  and  _556
REMARK  224  A    between atoms: _555  and  _558
REMARK  225  A    between atoms: _558  and  _559
REMARK  226  A    between atoms: _559  and  _560
REMARK  227  A    between atoms: _560  and  _561
REMARK  228  A    between atoms: _570  and  _572
REMARK  229  A    between atoms: _572  and  _573
REMARK  230  A    between atoms: _572  and  _575
REMARK  231  A    between atoms: _575  and  _576
REMARK                            x       y       z     vdW  Elec       q    Type
REMARK                         _______ _______ _______ _____ _____    ______ ____
ROOT
ATOM      1  O   HOH     1      17.133   6.282  19.490  0.00  0.00    +0.000 OA
ENDROOT
TORSDOF 0
REMARK  Name = ../refined-set-2016/2fgv/2fgv_pocket.pdb
REMARK  231 active torsions:
REMARK  status: ('A' for Active; 'I' for Inactive)
REMARK    1  A    between atoms: _1  and  _3
REMARK    2  A    between atoms: _3  and  _4
REMARK    3  A    between atoms: _3  and  _6
REMARK    4  A    between atoms: _6  and  _7
REMARK    5  A    between atoms: _7  and  _8
REMARK    6  A    between atoms: _8  and  _9
REMARK    7  A    between atoms: _18  and  _20
REMARK    8  A    between atoms: _20  and  _21
REMARK    9  A    between atoms: _20  and  _23
REMARK   10  A    between atoms: _23  and  _24
REMARK   11  A    between atoms: _27  and  _29
REMARK   12  A    between atoms: _29  and  _30
REMARK   13  A    between atoms: _29  and  _32
REMARK   14  A    between atoms: _32  and  _33
REMARK   15  A    between atoms: _36  and  _38
REMARK   16  A    between atoms: _38  and  _39
REMARK   17  A    between atoms: _38  and  _41
REMARK   18  A    between atoms: _41  and  _42
REMARK   19  A    between atoms: _45  and  _47
REMARK   20  A    between atoms: _47  and  _48
REMARK   21  A    between atoms: _47  and  _50
REMARK   22  A    between atoms: _50  and  _51
REMARK   23  A    between atoms: _54  and  _56
REMARK   24  A    between atoms: _56  and  _57
REMARK   25  A    between atoms: _59  and  _61
REMARK   26  A    between atoms: _61  and  _62
REMARK   27  A    between atoms: _65  and  _67
REMARK   28  A    between atoms: _67  and  _68
REMARK   29  A    between atoms: _67  and  _70
REMARK   30  A    between atoms: _70  and  _71
REMARK   31  A    between atoms: _74  and  _76
REMARK   32  A    between atoms: _76  and  _77
REMARK   33  A    between atoms: _76  and  _79
REMARK   34  A    between atoms: _79  and  _80
REMARK   35  A    between atoms: _83  and  _85
REMARK   36  A    between atoms: _85  and  _86
REMARK   37  A    between atoms: _85  and  _88
REMARK   38  A    between atoms: _88  and  _89
REMARK   39  A    between atoms: _92  and  _94
REMARK   40  A    between atoms: _94  and  _95
REMARK   41  A    between atoms: _94  and  _97
REMARK   42  A    between atoms: _100  and  _102
REMARK   43  A    between atoms: _102  and  _103
REMARK   44  A    between atoms: _102  and  _105
REMARK   45  A    between atoms: _105  and  _106
REMARK   46  A    between atoms: _106  and  _107
REMARK   47  A    between atoms: _107  and  _108
REMARK   48  A    between atoms: _108  and  _109
REMARK   49  A    between atoms: _113  and  _115
REMARK   50  A    between atoms: _115  and  _116
REMARK   51  A    between atoms: _115  and  _118
REMARK   52  A    between atoms: _118  and  _119
REMARK   53  A    between atoms: _119  and  _120
REMARK   54  A    between atoms: _122  and  _124
REMARK   55  A    between atoms: _124  and  _125
REMARK   56  A    between atoms: _124  and  _127
REMARK   57  A    between atoms: _127  and  _128
REMARK   58  A    between atoms: _131  and  _133
REMARK   59  A    between atoms: _133  and  _134
REMARK   60  A    between atoms: _136  and  _138
REMARK   61  A    between atoms: _138  and  _139
REMARK   62  A    between atoms: _141  and  _143
REMARK   63  A    between atoms: _143  and  _144
REMARK   64  A    between atoms: _143  and  _146
REMARK   65  A    between atoms: _146  and  _147
REMARK   66  A    between atoms: _150  and  _152
REMARK   67  A    between atoms: _152  and  _153
REMARK   68  A    between atoms: _155  and  _157
REMARK   69  A    between atoms: _157  and  _158
REMARK   70  A    between atoms: _160  and  _162
REMARK   71  A    between atoms: _162  and  _163
REMARK   72  A    between atoms: _162  and  _165
REMARK   73  A    between atoms: _165  and  _166
REMARK   74  A    between atoms: _172  and  _174
REMARK   75  A    between atoms: _174  and  _175
REMARK   76  A    between atoms: _174  and  _177
REMARK   77  A    between atoms: _177  and  _178
REMARK   78  A    between atoms: _181  and  _183
REMARK   79  A    between atoms: _183  and  _184
REMARK   80  A    between atoms: _183  and  _186
REMARK   81  A    between atoms: _189  and  _191
REMARK   82  A    between atoms: _191  and  _192
REMARK   83  A    between atoms: _191  and  _194
REMARK   84  A    between atoms: _194  and  _195
REMARK   85  A    between atoms: _199  and  _200
REMARK   86  A    between atoms: _205  and  _207
REMARK   87  A    between atoms: _207  and  _208
REMARK   88  A    between atoms: _207  and  _210
REMARK   89  A    between atoms: _210  and  _211
REMARK   90  A    between atoms: _217  and  _218
REMARK   91  A    between atoms: _223  and  _225
REMARK   92  A    between atoms: _225  and  _226
REMARK   93  A    between atoms: _225  and  _228
REMARK   94  A    between atoms: _231  and  _233
REMARK   95  A    between atoms: _233  and  _234
REMARK   96  A    between atoms: _233  and  _236
REMARK   97  A    between atoms: _236  and  _237
REMARK   98  A    between atoms: _242  and  _244
REMARK   99  A    between atoms: _244  and  _245
REMARK  100  A    between atoms: _244  and  _247
REMARK  101  A    between atoms: _247  and  _248
REMARK  102  A    between atoms: _251  and  _253
REMARK  103  A    between atoms: _253  and  _254
REMARK  104  A    between atoms: _253  and  _256
REMARK  105  A    between atoms: _256  and  _257
REMARK  106  A    between atoms: _260  and  _262
REMARK  107  A    between atoms: _262  and  _263
REMARK  108  A    between atoms: _265  and  _267
REMARK  109  A    between atoms: _267  and  _268
REMARK  110  A    between atoms: _267  and  _270
REMARK  111  A    between atoms: _270  and  _271
REMARK  112  A    between atoms: _271  and  _272
REMARK  113  A    between atoms: _272  and  _273
REMARK  114  A    between atoms: _282  and  _284
REMARK  115  A    between atoms: _284  and  _285
REMARK  116  A    between atoms: _284  and  _287
REMARK  117  A    between atoms: _287  and  _288
REMARK  118  A    between atoms: _293  and  _295
REMARK  119  A    between atoms: _295  and  _296
REMARK  120  A    between atoms: _295  and  _298
REMARK  121  A    between atoms: _298  and  _299
REMARK  122  A    between atoms: _299  and  _300
REMARK  123  A    between atoms: _300  and  _301
REMARK  124  A    between atoms: _310  and  _312
REMARK  125  A    between atoms: _312  and  _313
REMARK  126  A    between atoms: _312  and  _315
REMARK  127  A    between atoms: _315  and  _316
REMARK  128  A    between atoms: _319  and  _321
REMARK  129  A    between atoms: _321  and  _322
REMARK  130  A    between atoms: _321  and  _324
REMARK  131  A    between atoms: _324  and  _325
REMARK  132  A    between atoms: _328  and  _330
REMARK  133  A    between atoms: _330  and  _331
REMARK  134  A    between atoms: _330  and  _333
REMARK  135  A    between atoms: _333  and  _334
REMARK  136  A    between atoms: _337  and  _339
REMARK  137  A    between atoms: _339  and  _340
REMARK  138  A    between atoms: _339  and  _342
REMARK  139  A    between atoms: _342  and  _343
REMARK  140  A    between atoms: _346  and  _348
REMARK  141  A    between atoms: _348  and  _349
REMARK  142  A    between atoms: _351  and  _353
REMARK  143  A    between atoms: _353  and  _354
REMARK  144  A    between atoms: _357  and  _359
REMARK  145  A    between atoms: _359  and  _360
REMARK  146  A    between atoms: _359  and  _362
REMARK  147  A    between atoms: _362  and  _363
REMARK  148  A    between atoms: _366  and  _368
REMARK  149  A    between atoms: _368  and  _369
REMARK  150  A    between atoms: _368  and  _371
REMARK  151  A    between atoms: _371  and  _372
REMARK  152  A    between atoms: _375  and  _377
REMARK  153  A    between atoms: _377  and  _378
REMARK  154  A    between atoms: _377  and  _380
REMARK  155  A    between atoms: _380  and  _381
REMARK  156  A    between atoms: _384  and  _386
REMARK  157  A    between atoms: _386  and  _387
REMARK  158  A    between atoms: _386  and  _389
REMARK  159  A    between atoms: _392  and  _394
REMARK  160  A    between atoms: _394  and  _395
REMARK  161  A    between atoms: _394  and  _397
REMARK  162  A    between atoms: _397  and  _398
REMARK  163  A    between atoms: _401  and  _403
REMARK  164  A    between atoms: _403  and  _404
REMARK  165  A    between atoms: _403  and  _406
REMARK  166  A    between atoms: _406  and  _407
REMARK  167  A    between atoms: _407  and  _408
REMARK  168  A    between atoms: _410  and  _412
REMARK  169  A    between atoms: _412  and  _413
REMARK  170  A    between atoms: _412  and  _415
REMARK  171  A    between atoms: _415  and  _416
REMARK  172  A    between atoms: _419  and  _421
REMARK  173  A    between atoms: _421  and  _422
REMARK  174  A    between atoms: _424  and  _426
REMARK  175  A    between atoms: _426  and  _427
REMARK  176  A    between atoms: _429  and  _431
REMARK  177  A    between atoms: _431  and  _432
REMARK  178  A    between atoms: _431  and  _434
REMARK  179  A    between atoms: _434  and  _435
REMARK  180  A    between atoms: _438  and  _440
REMARK  181  A    between atoms: _440  and  _441
REMARK  182  A    between atoms: _443  and  _445
REMARK  183  A    between atoms: _445  and  _446
REMARK  184  A    between atoms: _448  and  _450
REMARK  185  A    between atoms: _450  and  _451
REMARK  186  A    between atoms: _450  and  _453
REMARK  187  A    between atoms: _453  and  _454
REMARK  188  A    between atoms: _460  and  _462
REMARK  189  A    between atoms: _462  and  _463
REMARK  190  A    between atoms: _462  and  _465
REMARK  191  A    between atoms: _465  and  _466
REMARK  192  A    between atoms: _469  and  _471
REMARK  193  A    between atoms: _471  and  _472
REMARK  194  A    between atoms: _471  and  _474
REMARK  195  A    between atoms: _477  and  _479
REMARK  196  A    between atoms: _479  and  _480
REMARK  197  A    between atoms: _479  and  _482
REMARK  198  A    between atoms: _482  and  _483
REMARK  199  A    between atoms: _487  and  _488
REMARK  200  A    between atoms: _493  and  _495
REMARK  201  A    between atoms: _495  and  _496
REMARK  202  A    between atoms: _495  and  _498
REMARK  203  A    between atoms: _498  and  _499
REMARK  204  A    between atoms: _505  and  _506
REMARK  205  A    between atoms: _511  and  _513
REMARK  206  A    between atoms: _513  and  _514
REMARK  207  A    between atoms: _513  and  _516
REMARK  208  A    between atoms: _519  and  _521
REMARK  209  A    between atoms: _521  and  _522
REMARK  210  A    between atoms: _521  and  _524
REMARK  211  A    between atoms: _524  and  _525
REMARK  212  A    between atoms: _530  and  _532
REMARK  213  A    between atoms: _532  and  _533
REMARK  214  A    between atoms: _532  and  _535
REMARK  215  A    between atoms: _535  and  _536
REMARK  216  A    between atoms: _539  and  _541
REMARK  217  A    between atoms: _541  and  _542
REMARK  218  A    between atoms: _541  and  _544
REMARK  219  A    between atoms: _544  and  _545
REMARK  220  A    between atoms: _548  and  _550
REMARK  221  A    between atoms: _550  and  _551
REMARK  222  A    between atoms: _553  and  _555
REMARK  223  A    between atoms: _555  and  _556
REMARK  224  A    between atoms: _555  and  _558
REMARK  225  A    between atoms: _558  and  _559
REMARK  226  A    between atoms: _559  and  _560
REMARK  227  A    between atoms: _560  and  _561
REMARK  228  A    between atoms: _570  and  _572
REMARK  229  A    between atoms: _572  and  _573
REMARK  230  A    between atoms: _572  and  _575
REMARK  231  A    between atoms: _575  and  _576
REMARK                            x       y       z     vdW  Elec       q    Type
REMARK                         _______ _______ _______ _____ _____    ______ ____
ROOT
ATOM      1  O   HOH     1      18.265  -9.654   6.348  0.00  0.00    +0.000 OA
ENDROOT
TORSDOF 0
REMARK  Name = ../refined-set-2016/2fgv/2fgv_pocket.pdb
REMARK  231 active torsions:
REMARK  status: ('A' for Active; 'I' for Inactive)
REMARK    1  A    between atoms: _1  and  _3
REMARK    2  A    between atoms: _3  and  _4
REMARK    3  A    between atoms: _3  and  _6
REMARK    4  A    between atoms: _6  and  _7
REMARK    5  A    between atoms: _7  and  _8
REMARK    6  A    between atoms: _8  and  _9
REMARK    7  A    between atoms: _18  and  _20
REMARK    8  A    between atoms: _20  and  _21
REMARK    9  A    between atoms: _20  and  _23
REMARK   10  A    between atoms: _23  and  _24
REMARK   11  A    between atoms: _27  and  _29
REMARK   12  A    between atoms: _29  and  _30
REMARK   13  A    between atoms: _29  and  _32
REMARK   14  A    between atoms: _32  and  _33
REMARK   15  A    between atoms: _36  and  _38
REMARK   16  A    between atoms: _38  and  _39
REMARK   17  A    between atoms: _38  and  _41
REMARK   18  A    between atoms: _41  and  _42
REMARK   19  A    between atoms: _45  and  _47
REMARK   20  A    between atoms: _47  and  _48
REMARK   21  A    between atoms: _47  and  _50
REMARK   22  A    between atoms: _50  and  _51
REMARK   23  A    between atoms: _54  and  _56
REMARK   24  A    between atoms: _56  and  _57
REMARK   25  A    between atoms: _59  and  _61
REMARK   26  A    between atoms: _61  and  _62
REMARK   27  A    between atoms: _65  and  _67
REMARK   28  A    between atoms: _67  and  _68
REMARK   29  A    between atoms: _67  and  _70
REMARK   30  A    between atoms: _70  and  _71
REMARK   31  A    between atoms: _74  and  _76
REMARK   32  A    between atoms: _76  and  _77
REMARK   33  A    between atoms: _76  and  _79
REMARK   34  A    between atoms: _79  and  _80
REMARK   35  A    between atoms: _83  and  _85
REMARK   36  A    between atoms: _85  and  _86
REMARK   37  A    between atoms: _85  and  _88
REMARK   38  A    between atoms: _88  and  _89
REMARK   39  A    between atoms: _92  and  _94
REMARK   40  A    between atoms: _94  and  _95
REMARK   41  A    between atoms: _94  and  _97
REMARK   42  A    between atoms: _100  and  _102
REMARK   43  A    between atoms: _102  and  _103
REMARK   44  A    between atoms: _102  and  _105
REMARK   45  A    between atoms: _105  and  _106
REMARK   46  A    between atoms: _106  and  _107
REMARK   47  A    between atoms: _107  and  _108
REMARK   48  A    between atoms: _108  and  _109
REMARK   49  A    between atoms: _113  and  _115
REMARK   50  A    between atoms: _115  and  _116
REMARK   51  A    between atoms: _115  and  _118
REMARK   52  A    between atoms: _118  and  _119
REMARK   53  A    between atoms: _119  and  _120
REMARK   54  A    between atoms: _122  and  _124
REMARK   55  A    between atoms: _124  and  _125
REMARK   56  A    between atoms: _124  and  _127
REMARK   57  A    between atoms: _127  and  _128
REMARK   58  A    between atoms: _131  and  _133
REMARK   59  A    between atoms: _133  and  _134
REMARK   60  A    between atoms: _136  and  _138
REMARK   61  A    between atoms: _138  and  _139
REMARK   62  A    between atoms: _141  and  _143
REMARK   63  A    between atoms: _143  and  _144
REMARK   64  A    between atoms: _143  and  _146
REMARK   65  A    between atoms: _146  and  _147
REMARK   66  A    between atoms: _150  and  _152
REMARK   67  A    between atoms: _152  and  _153
REMARK   68  A    between atoms: _155  and  _157
REMARK   69  A    between atoms: _157  and  _158
REMARK   70  A    between atoms: _160  and  _162
REMARK   71  A    between atoms: _162  and  _163
REMARK   72  A    between atoms: _162  and  _165
REMARK   73  A    between atoms: _165  and  _166
REMARK   74  A    between atoms: _172  and  _174
REMARK   75  A    between atoms: _174  and  _175
REMARK   76  A    between atoms: _174  and  _177
REMARK   77  A    between atoms: _177  and  _178
REMARK   78  A    between atoms: _181  and  _183
REMARK   79  A    between atoms: _183  and  _184
REMARK   80  A    between atoms: _183  and  _186
REMARK   81  A    between atoms: _189  and  _191
REMARK   82  A    between atoms: _191  and  _192
REMARK   83  A    between atoms: _191  and  _194
REMARK   84  A    between atoms: _194  and  _195
REMARK   85  A    between atoms: _199  and  _200
REMARK   86  A    between atoms: _205  and  _207
REMARK   87  A    between atoms: _207  and  _208
REMARK   88  A    between atoms: _207  and  _210
REMARK   89  A    between atoms: _210  and  _211
REMARK   90  A    between atoms: _217  and  _218
REMARK   91  A    between atoms: _223  and  _225
REMARK   92  A    between atoms: _225  and  _226
REMARK   93  A    between atoms: _225  and  _228
REMARK   94  A    between atoms: _231  and  _233
REMARK   95  A    between atoms: _233  and  _234
REMARK   96  A    between atoms: _233  and  _236
REMARK   97  A    between atoms: _236  and  _237
REMARK   98  A    between atoms: _242  and  _244
REMARK   99  A    between atoms: _244  and  _245
REMARK  100  A    between atoms: _244  and  _247
REMARK  101  A    between atoms: _247  and  _248
REMARK  102  A    between atoms: _251  and  _253
REMARK  103  A    between atoms: _253  and  _254
REMARK  104  A    between atoms: _253  and  _256
REMARK  105  A    between atoms: _256  and  _257
REMARK  106  A    between atoms: _260  and  _262
REMARK  107  A    between atoms: _262  and  _263
REMARK  108  A    between atoms: _265  and  _267
REMARK  109  A    between atoms: _267  and  _268
REMARK  110  A    between atoms: _267  and  _270
REMARK  111  A    between atoms: _270  and  _271
REMARK  112  A    between atoms: _271  and  _272
REMARK  113  A    between atoms: _272  and  _273
REMARK  114  A    between atoms: _282  and  _284
REMARK  115  A    between atoms: _284  and  _285
REMARK  116  A    between atoms: _284  and  _287
REMARK  117  A    between atoms: _287  and  _288
REMARK  118  A    between atoms: _293  and  _295
REMARK  119  A    between atoms: _295  and  _296
REMARK  120  A    between atoms: _295  and  _298
REMARK  121  A    between atoms: _298  and  _299
REMARK  122  A    between atoms: _299  and  _300
REMARK  123  A    between atoms: _300  and  _301
REMARK  124  A    between atoms: _310  and  _312
REMARK  125  A    between atoms: _312  and  _313
REMARK  126  A    between atoms: _312  and  _315
REMARK  127  A    between atoms: _315  and  _316
REMARK  128  A    between atoms: _319  and  _321
REMARK  129  A    between atoms: _321  and  _322
REMARK  130  A    between atoms: _321  and  _324
REMARK  131  A    between atoms: _324  and  _325
REMARK  132  A    between atoms: _328  and  _330
REMARK  133  A    between atoms: _330  and  _331
REMARK  134  A    between atoms: _330  and  _333
REMARK  135  A    between atoms: _333  and  _334
REMARK  136  A    between atoms: _337  and  _339
REMARK  137  A    between atoms: _339  and  _340
REMARK  138  A    between atoms: _339  and  _342
REMARK  139  A    between atoms: _342  and  _343
REMARK  140  A    between atoms: _346  and  _348
REMARK  141  A    between atoms: _348  and  _349
REMARK  142  A    between atoms: _351  and  _353
REMARK  143  A    between atoms: _353  and  _354
REMARK  144  A    between atoms: _357  and  _359
REMARK  145  A    between atoms: _359  and  _360
REMARK  146  A    between atoms: _359  and  _362
REMARK  147  A    between atoms: _362  and  _363
REMARK  148  A    between atoms: _366  and  _368
REMARK  149  A    between atoms: _368  and  _369
REMARK  150  A    between atoms: _368  and  _371
REMARK  151  A    between atoms: _371  and  _372
REMARK  152  A    between atoms: _375  and  _377
REMARK  153  A    between atoms: _377  and  _378
REMARK  154  A    between atoms: _377  and  _380
REMARK  155  A    between atoms: _380  and  _381
REMARK  156  A    between atoms: _384  and  _386
REMARK  157  A    between atoms: _386  and  _387
REMARK  158  A    between atoms: _386  and  _389
REMARK  159  A    between atoms: _392  and  _394
REMARK  160  A    between atoms: _394  and  _395
REMARK  161  A    between atoms: _394  and  _397
REMARK  162  A    between atoms: _397  and  _398
REMARK  163  A    between atoms: _401  and  _403
REMARK  164  A    between atoms: _403  and  _404
REMARK  165  A    between atoms: _403  and  _406
REMARK  166  A    between atoms: _406  and  _407
REMARK  167  A    between atoms: _407  and  _408
REMARK  168  A    between atoms: _410  and  _412
REMARK  169  A    between atoms: _412  and  _413
REMARK  170  A    between atoms: _412  and  _415
REMARK  171  A    between atoms: _415  and  _416
REMARK  172  A    between atoms: _419  and  _421
REMARK  173  A    between atoms: _421  and  _422
REMARK  174  A    between atoms: _424  and  _426
REMARK  175  A    between atoms: _426  and  _427
REMARK  176  A    between atoms: _429  and  _431
REMARK  177  A    between atoms: _431  and  _432
REMARK  178  A    between atoms: _431  and  _434
REMARK  179  A    between atoms: _434  and  _435
REMARK  180  A    between atoms: _438  and  _440
REMARK  181  A    between atoms: _440  and  _441
REMARK  182  A    between atoms: _443  and  _445
REMARK  183  A    between atoms: _445  and  _446
REMARK  184  A    between atoms: _448  and  _450
REMARK  185  A    between atoms: _450  and  _451
REMARK  186  A    between atoms: _450  and  _453
REMARK  187  A    between atoms: _453  and  _454
REMARK  188  A    between atoms: _460  and  _462
REMARK  189  A    between atoms: _462  and  _463
REMARK  190  A    between atoms: _462  and  _465
REMARK  191  A    between atoms: _465  and  _466
REMARK  192  A    between atoms: _469  and  _471
REMARK  193  A    between atoms: _471  and  _472
REMARK  194  A    between atoms: _471  and  _474
REMARK  195  A    between atoms: _477  and  _479
REMARK  196  A    between atoms: _479  and  _480
REMARK  197  A    between atoms: _479  and  _482
REMARK  198  A    between atoms: _482  and  _483
REMARK  199  A    between atoms: _487  and  _488
REMARK  200  A    between atoms: _493  and  _495
REMARK  201  A    between atoms: _495  and  _496
REMARK  202  A    between atoms: _495  and  _498
REMARK  203  A    between atoms: _498  and  _499
REMARK  204  A    between atoms: _505  and  _506
REMARK  205  A    between atoms: _511  and  _513
REMARK  206  A    between atoms: _513  and  _514
REMARK  207  A    between atoms: _513  and  _516
REMARK  208  A    between atoms: _519  and  _521
REMARK  209  A    between atoms: _521  and  _522
REMARK  210  A    between atoms: _521  and  _524
REMARK  211  A    between atoms: _524  and  _525
REMARK  212  A    between atoms: _530  and  _532
REMARK  213  A    between atoms: _532  and  _533
REMARK  214  A    between atoms: _532  and  _535
REMARK  215  A    between atoms: _535  and  _536
REMARK  216  A    between atoms: _539  and  _541
REMARK  217  A    between atoms: _541  and  _542
REMARK  218  A    between atoms: _541  and  _544
REMARK  219  A    between atoms: _544  and  _545
REMARK  220  A    between atoms: _548  and  _550
REMARK  221  A    between atoms: _550  and  _551
REMARK  222  A    between atoms: _553  and  _555
REMARK  223  A    between atoms: _555  and  _556
REMARK  224  A    between atoms: _555  and  _558
REMARK  225  A    between atoms: _558  and  _559
REMARK  226  A    between atoms: _559  and  _560
REMARK  227  A    between atoms: _560  and  _561
REMARK  228  A    between atoms: _570  and  _572
REMARK  229  A    between atoms: _572  and  _573
REMARK  230  A    between atoms: _572  and  _575
REMARK  231  A    between atoms: _575  and  _576
REMARK                            x       y       z     vdW  Elec       q    Type
REMARK                         _______ _______ _______ _____ _____    ______ ____
ROOT
ATOM      1  O   HOH     1      15.668  -8.705   5.747  0.00  0.00    +0.000 OA
ENDROOT
TORSDOF 0
REMARK  Name = ../refined-set-2016/2fgv/2fgv_pocket.pdb
REMARK  231 active torsions:
REMARK  status: ('A' for Active; 'I' for Inactive)
REMARK    1  A    between atoms: _1  and  _3
REMARK    2  A    between atoms: _3  and  _4
REMARK    3  A    between atoms: _3  and  _6
REMARK    4  A    between atoms: _6  and  _7
REMARK    5  A    between atoms: _7  and  _8
REMARK    6  A    between atoms: _8  and  _9
REMARK    7  A    between atoms: _18  and  _20
REMARK    8  A    between atoms: _20  and  _21
REMARK    9  A    between atoms: _20  and  _23
REMARK   10  A    between atoms: _23  and  _24
REMARK   11  A    between atoms: _27  and  _29
REMARK   12  A    between atoms: _29  and  _30
REMARK   13  A    between atoms: _29  and  _32
REMARK   14  A    between atoms: _32  and  _33
REMARK   15  A    between atoms: _36  and  _38
REMARK   16  A    between atoms: _38  and  _39
REMARK   17  A    between atoms: _38  and  _41
REMARK   18  A    between atoms: _41  and  _42
REMARK   19  A    between atoms: _45  and  _47
REMARK   20  A    between atoms: _47  and  _48
REMARK   21  A    between atoms: _47  and  _50
REMARK   22  A    between atoms: _50  and  _51
REMARK   23  A    between atoms: _54  and  _56
REMARK   24  A    between atoms: _56  and  _57
REMARK   25  A    between atoms: _59  and  _61
REMARK   26  A    between atoms: _61  and  _62
REMARK   27  A    between atoms: _65  and  _67
REMARK   28  A    between atoms: _67  and  _68
REMARK   29  A    between atoms: _67  and  _70
REMARK   30  A    between atoms: _70  and  _71
REMARK   31  A    between atoms: _74  and  _76
REMARK   32  A    between atoms: _76  and  _77
REMARK   33  A    between atoms: _76  and  _79
REMARK   34  A    between atoms: _79  and  _80
REMARK   35  A    between atoms: _83  and  _85
REMARK   36  A    between atoms: _85  and  _86
REMARK   37  A    between atoms: _85  and  _88
REMARK   38  A    between atoms: _88  and  _89
REMARK   39  A    between atoms: _92  and  _94
REMARK   40  A    between atoms: _94  and  _95
REMARK   41  A    between atoms: _94  and  _97
REMARK   42  A    between atoms: _100  and  _102
REMARK   43  A    between atoms: _102  and  _103
REMARK   44  A    between atoms: _102  and  _105
REMARK   45  A    between atoms: _105  and  _106
REMARK   46  A    between atoms: _106  and  _107
REMARK   47  A    between atoms: _107  and  _108
REMARK   48  A    between atoms: _108  and  _109
REMARK   49  A    between atoms: _113  and  _115
REMARK   50  A    between atoms: _115  and  _116
REMARK   51  A    between atoms: _115  and  _118
REMARK   52  A    between atoms: _118  and  _119
REMARK   53  A    between atoms: _119  and  _120
REMARK   54  A    between atoms: _122  and  _124
REMARK   55  A    between atoms: _124  and  _125
REMARK   56  A    between atoms: _124  and  _127
REMARK   57  A    between atoms: _127  and  _128
REMARK   58  A    between atoms: _131  and  _133
REMARK   59  A    between atoms: _133  and  _134
REMARK   60  A    between atoms: _136  and  _138
REMARK   61  A    between atoms: _138  and  _139
REMARK   62  A    between atoms: _141  and  _143
REMARK   63  A    between atoms: _143  and  _144
REMARK   64  A    between atoms: _143  and  _146
REMARK   65  A    between atoms: _146  and  _147
REMARK   66  A    between atoms: _150  and  _152
REMARK   67  A    between atoms: _152  and  _153
REMARK   68  A    between atoms: _155  and  _157
REMARK   69  A    between atoms: _157  and  _158
REMARK   70  A    between atoms: _160  and  _162
REMARK   71  A    between atoms: _162  and  _163
REMARK   72  A    between atoms: _162  and  _165
REMARK   73  A    between atoms: _165  and  _166
REMARK   74  A    between atoms: _172  and  _174
REMARK   75  A    between atoms: _174  and  _175
REMARK   76  A    between atoms: _174  and  _177
REMARK   77  A    between atoms: _177  and  _178
REMARK   78  A    between atoms: _181  and  _183
REMARK   79  A    between atoms: _183  and  _184
REMARK   80  A    between atoms: _183  and  _186
REMARK   81  A    between atoms: _189  and  _191
REMARK   82  A    between atoms: _191  and  _192
REMARK   83  A    between atoms: _191  and  _194
REMARK   84  A    between atoms: _194  and  _195
REMARK   85  A    between atoms: _199  and  _200
REMARK   86  A    between atoms: _205  and  _207
REMARK   87  A    between atoms: _207  and  _208
REMARK   88  A    between atoms: _207  and  _210
REMARK   89  A    between atoms: _210  and  _211
REMARK   90  A    between atoms: _217  and  _218
REMARK   91  A    between atoms: _223  and  _225
REMARK   92  A    between atoms: _225  and  _226
REMARK   93  A    between atoms: _225  and  _228
REMARK   94  A    between atoms: _231  and  _233
REMARK   95  A    between atoms: _233  and  _234
REMARK   96  A    between atoms: _233  and  _236
REMARK   97  A    between atoms: _236  and  _237
REMARK   98  A    between atoms: _242  and  _244
REMARK   99  A    between atoms: _244  and  _245
REMARK  100  A    between atoms: _244  and  _247
REMARK  101  A    between atoms: _247  and  _248
REMARK  102  A    between atoms: _251  and  _253
REMARK  103  A    between atoms: _253  and  _254
REMARK  104  A    between atoms: _253  and  _256
REMARK  105  A    between atoms: _256  and  _257
REMARK  106  A    between atoms: _260  and  _262
REMARK  107  A    between atoms: _262  and  _263
REMARK  108  A    between atoms: _265  and  _267
REMARK  109  A    between atoms: _267  and  _268
REMARK  110  A    between atoms: _267  and  _270
REMARK  111  A    between atoms: _270  and  _271
REMARK  112  A    between atoms: _271  and  _272
REMARK  113  A    between atoms: _272  and  _273
REMARK  114  A    between atoms: _282  and  _284
REMARK  115  A    between atoms: _284  and  _285
REMARK  116  A    between atoms: _284  and  _287
REMARK  117  A    between atoms: _287  and  _288
REMARK  118  A    between atoms: _293  and  _295
REMARK  119  A    between atoms: _295  and  _296
REMARK  120  A    between atoms: _295  and  _298
REMARK  121  A    between atoms: _298  and  _299
REMARK  122  A    between atoms: _299  and  _300
REMARK  123  A    between atoms: _300  and  _301
REMARK  124  A    between atoms: _310  and  _312
REMARK  125  A    between atoms: _312  and  _313
REMARK  126  A    between atoms: _312  and  _315
REMARK  127  A    between atoms: _315  and  _316
REMARK  128  A    between atoms: _319  and  _321
REMARK  129  A    between atoms: _321  and  _322
REMARK  130  A    between atoms: _321  and  _324
REMARK  131  A    between atoms: _324  and  _325
REMARK  132  A    between atoms: _328  and  _330
REMARK  133  A    between atoms: _330  and  _331
REMARK  134  A    between atoms: _330  and  _333
REMARK  135  A    between atoms: _333  and  _334
REMARK  136  A    between atoms: _337  and  _339
REMARK  137  A    between atoms: _339  and  _340
REMARK  138  A    between atoms: _339  and  _342
REMARK  139  A    between atoms: _342  and  _343
REMARK  140  A    between atoms: _346  and  _348
REMARK  141  A    between atoms: _348  and  _349
REMARK  142  A    between atoms: _351  and  _353
REMARK  143  A    between atoms: _353  and  _354
REMARK  144  A    between atoms: _357  and  _359
REMARK  145  A    between atoms: _359  and  _360
REMARK  146  A    between atoms: _359  and  _362
REMARK  147  A    between atoms: _362  and  _363
REMARK  148  A    between atoms: _366  and  _368
REMARK  149  A    between atoms: _368  and  _369
REMARK  150  A    between atoms: _368  and  _371
REMARK  151  A    between atoms: _371  and  _372
REMARK  152  A    between atoms: _375  and  _377
REMARK  153  A    between atoms: _377  and  _378
REMARK  154  A    between atoms: _377  and  _380
REMARK  155  A    between atoms: _380  and  _381
REMARK  156  A    between atoms: _384  and  _386
REMARK  157  A    between atoms: _386  and  _387
REMARK  158  A    between atoms: _386  and  _389
REMARK  159  A    between atoms: _392  and  _394
REMARK  160  A    between atoms: _394  and  _395
REMARK  161  A    between atoms: _394  and  _397
REMARK  162  A    between atoms: _397  and  _398
REMARK  163  A    between atoms: _401  and  _403
REMARK  164  A    between atoms: _403  and  _404
REMARK  165  A    between atoms: _403  and  _406
REMARK  166  A    between atoms: _406  and  _407
REMARK  167  A    between atoms: _407  and  _408
REMARK  168  A    between atoms: _410  and  _412
REMARK  169  A    between atoms: _412  and  _413
REMARK  170  A    between atoms: _412  and  _415
REMARK  171  A    between atoms: _415  and  _416
REMARK  172  A    between atoms: _419  and  _421
REMARK  173  A    between atoms: _421  and  _422
REMARK  174  A    between atoms: _424  and  _426
REMARK  175  A    between atoms: _426  and  _427
REMARK  176  A    between atoms: _429  and  _431
REMARK  177  A    between atoms: _431  and  _432
REMARK  178  A    between atoms: _431  and  _434
REMARK  179  A    between atoms: _434  and  _435
REMARK  180  A    between atoms: _438  and  _440
REMARK  181  A    between atoms: _440  and  _441
REMARK  182  A    between atoms: _443  and  _445
REMARK  183  A    between atoms: _445  and  _446
REMARK  184  A    between atoms: _448  and  _450
REMARK  185  A    between atoms: _450  and  _451
REMARK  186  A    between atoms: _450  and  _453
REMARK  187  A    between atoms: _453  and  _454
REMARK  188  A    between atoms: _460  and  _462
REMARK  189  A    between atoms: _462  and  _463
REMARK  190  A    between atoms: _462  and  _465
REMARK  191  A    between atoms: _465  and  _466
REMARK  192  A    between atoms: _469  and  _471
REMARK  193  A    between atoms: _471  and  _472
REMARK  194  A    between atoms: _471  and  _474
REMARK  195  A    between atoms: _477  and  _479
REMARK  196  A    between atoms: _479  and  _480
REMARK  197  A    between atoms: _479  and  _482
REMARK  198  A    between atoms: _482  and  _483
REMARK  199  A    between atoms: _487  and  _488
REMARK  200  A    between atoms: _493  and  _495
REMARK  201  A    between atoms: _495  and  _496
REMARK  202  A    between atoms: _495  and  _498
REMARK  203  A    between atoms: _498  and  _499
REMARK  204  A    between atoms: _505  and  _506
REMARK  205  A    between atoms: _511  and  _513
REMARK  206  A    between atoms: _513  and  _514
REMARK  207  A    between atoms: _513  and  _516
REMARK  208  A    between atoms: _519  and  _521
REMARK  209  A    between atoms: _521  and  _522
REMARK  210  A    between atoms: _521  and  _524
REMARK  211  A    between atoms: _524  and  _525
REMARK  212  A    between atoms: _530  and  _532
REMARK  213  A    between atoms: _532  and  _533
REMARK  214  A    between atoms: _532  and  _535
REMARK  215  A    between atoms: _535  and  _536
REMARK  216  A    between atoms: _539  and  _541
REMARK  217  A    between atoms: _541  and  _542
REMARK  218  A    between atoms: _541  and  _544
REMARK  219  A    between atoms: _544  and  _545
REMARK  220  A    between atoms: _548  and  _550
REMARK  221  A    between atoms: _550  and  _551
REMARK  222  A    between atoms: _553  and  _555
REMARK  223  A    between atoms: _555  and  _556
REMARK  224  A    between atoms: _555  and  _558
REMARK  225  A    between atoms: _558  and  _559
REMARK  226  A    between atoms: _559  and  _560
REMARK  227  A    between atoms: _560  and  _561
REMARK  228  A    between atoms: _570  and  _572
REMARK  229  A    between atoms: _572  and  _573
REMARK  230  A    between atoms: _572  and  _575
REMARK  231  A    between atoms: _575  and  _576
REMARK                            x       y       z     vdW  Elec       q    Type
REMARK                         _______ _______ _______ _____ _____    ______ ____
ROOT
ATOM      1  O   HOH     1      20.058   7.618  14.900  0.00  0.00    +0.000 OA
ENDROOT
TORSDOF 0
REMARK  Name = ../refined-set-2016/2fgv/2fgv_pocket.pdb
REMARK  231 active torsions:
REMARK  status: ('A' for Active; 'I' for Inactive)
REMARK    1  A    between atoms: _1  and  _3
REMARK    2  A    between atoms: _3  and  _4
REMARK    3  A    between atoms: _3  and  _6
REMARK    4  A    between atoms: _6  and  _7
REMARK    5  A    between atoms: _7  and  _8
REMARK    6  A    between atoms: _8  and  _9
REMARK    7  A    between atoms: _18  and  _20
REMARK    8  A    between atoms: _20  and  _21
REMARK    9  A    between atoms: _20  and  _23
REMARK   10  A    between atoms: _23  and  _24
REMARK   11  A    between atoms: _27  and  _29
REMARK   12  A    between atoms: _29  and  _30
REMARK   13  A    between atoms: _29  and  _32
REMARK   14  A    between atoms: _32  and  _33
REMARK   15  A    between atoms: _36  and  _38
REMARK   16  A    between atoms: _38  and  _39
REMARK   17  A    between atoms: _38  and  _41
REMARK   18  A    between atoms: _41  and  _42
REMARK   19  A    between atoms: _45  and  _47
REMARK   20  A    between atoms: _47  and  _48
REMARK   21  A    between atoms: _47  and  _50
REMARK   22  A    between atoms: _50  and  _51
REMARK   23  A    between atoms: _54  and  _56
REMARK   24  A    between atoms: _56  and  _57
REMARK   25  A    between atoms: _59  and  _61
REMARK   26  A    between atoms: _61  and  _62
REMARK   27  A    between atoms: _65  and  _67
REMARK   28  A    between atoms: _67  and  _68
REMARK   29  A    between atoms: _67  and  _70
REMARK   30  A    between atoms: _70  and  _71
REMARK   31  A    between atoms: _74  and  _76
REMARK   32  A    between atoms: _76  and  _77
REMARK   33  A    between atoms: _76  and  _79
REMARK   34  A    between atoms: _79  and  _80
REMARK   35  A    between atoms: _83  and  _85
REMARK   36  A    between atoms: _85  and  _86
REMARK   37  A    between atoms: _85  and  _88
REMARK   38  A    between atoms: _88  and  _89
REMARK   39  A    between atoms: _92  and  _94
REMARK   40  A    between atoms: _94  and  _95
REMARK   41  A    between atoms: _94  and  _97
REMARK   42  A    between atoms: _100  and  _102
REMARK   43  A    between atoms: _102  and  _103
REMARK   44  A    between atoms: _102  and  _105
REMARK   45  A    between atoms: _105  and  _106
REMARK   46  A    between atoms: _106  and  _107
REMARK   47  A    between atoms: _107  and  _108
REMARK   48  A    between atoms: _108  and  _109
REMARK   49  A    between atoms: _113  and  _115
REMARK   50  A    between atoms: _115  and  _116
REMARK   51  A    between atoms: _115  and  _118
REMARK   52  A    between atoms: _118  and  _119
REMARK   53  A    between atoms: _119  and  _120
REMARK   54  A    between atoms: _122  and  _124
REMARK   55  A    between atoms: _124  and  _125
REMARK   56  A    between atoms: _124  and  _127
REMARK   57  A    between atoms: _127  and  _128
REMARK   58  A    between atoms: _131  and  _133
REMARK   59  A    between atoms: _133  and  _134
REMARK   60  A    between atoms: _136  and  _138
REMARK   61  A    between atoms: _138  and  _139
REMARK   62  A    between atoms: _141  and  _143
REMARK   63  A    between atoms: _143  and  _144
REMARK   64  A    between atoms: _143  and  _146
REMARK   65  A    between atoms: _146  and  _147
REMARK   66  A    between atoms: _150  and  _152
REMARK   67  A    between atoms: _152  and  _153
REMARK   68  A    between atoms: _155  and  _157
REMARK   69  A    between atoms: _157  and  _158
REMARK   70  A    between atoms: _160  and  _162
REMARK   71  A    between atoms: _162  and  _163
REMARK   72  A    between atoms: _162  and  _165
REMARK   73  A    between atoms: _165  and  _166
REMARK   74  A    between atoms: _172  and  _174
REMARK   75  A    between atoms: _174  and  _175
REMARK   76  A    between atoms: _174  and  _177
REMARK   77  A    between atoms: _177  and  _178
REMARK   78  A    between atoms: _181  and  _183
REMARK   79  A    between atoms: _183  and  _184
REMARK   80  A    between atoms: _183  and  _186
REMARK   81  A    between atoms: _189  and  _191
REMARK   82  A    between atoms: _191  and  _192
REMARK   83  A    between atoms: _191  and  _194
REMARK   84  A    between atoms: _194  and  _195
REMARK   85  A    between atoms: _199  and  _200
REMARK   86  A    between atoms: _205  and  _207
REMARK   87  A    between atoms: _207  and  _208
REMARK   88  A    between atoms: _207  and  _210
REMARK   89  A    between atoms: _210  and  _211
REMARK   90  A    between atoms: _217  and  _218
REMARK   91  A    between atoms: _223  and  _225
REMARK   92  A    between atoms: _225  and  _226
REMARK   93  A    between atoms: _225  and  _228
REMARK   94  A    between atoms: _231  and  _233
REMARK   95  A    between atoms: _233  and  _234
REMARK   96  A    between atoms: _233  and  _236
REMARK   97  A    between atoms: _236  and  _237
REMARK   98  A    between atoms: _242  and  _244
REMARK   99  A    between atoms: _244  and  _245
REMARK  100  A    between atoms: _244  and  _247
REMARK  101  A    between atoms: _247  and  _248
REMARK  102  A    between atoms: _251  and  _253
REMARK  103  A    between atoms: _253  and  _254
REMARK  104  A    between atoms: _253  and  _256
REMARK  105  A    between atoms: _256  and  _257
REMARK  106  A    between atoms: _260  and  _262
REMARK  107  A    between atoms: _262  and  _263
REMARK  108  A    between atoms: _265  and  _267
REMARK  109  A    between atoms: _267  and  _268
REMARK  110  A    between atoms: _267  and  _270
REMARK  111  A    between atoms: _270  and  _271
REMARK  112  A    between atoms: _271  and  _272
REMARK  113  A    between atoms: _272  and  _273
REMARK  114  A    between atoms: _282  and  _284
REMARK  115  A    between atoms: _284  and  _285
REMARK  116  A    between atoms: _284  and  _287
REMARK  117  A    between atoms: _287  and  _288
REMARK  118  A    between atoms: _293  and  _295
REMARK  119  A    between atoms: _295  and  _296
REMARK  120  A    between atoms: _295  and  _298
REMARK  121  A    between atoms: _298  and  _299
REMARK  122  A    between atoms: _299  and  _300
REMARK  123  A    between atoms: _300  and  _301
REMARK  124  A    between atoms: _310  and  _312
REMARK  125  A    between atoms: _312  and  _313
REMARK  126  A    between atoms: _312  and  _315
REMARK  127  A    between atoms: _315  and  _316
REMARK  128  A    between atoms: _319  and  _321
REMARK  129  A    between atoms: _321  and  _322
REMARK  130  A    between atoms: _321  and  _324
REMARK  131  A    between atoms: _324  and  _325
REMARK  132  A    between atoms: _328  and  _330
REMARK  133  A    between atoms: _330  and  _331
REMARK  134  A    between atoms: _330  and  _333
REMARK  135  A    between atoms: _333  and  _334
REMARK  136  A    between atoms: _337  and  _339
REMARK  137  A    between atoms: _339  and  _340
REMARK  138  A    between atoms: _339  and  _342
REMARK  139  A    between atoms: _342  and  _343
REMARK  140  A    between atoms: _346  and  _348
REMARK  141  A    between atoms: _348  and  _349
REMARK  142  A    between atoms: _351  and  _353
REMARK  143  A    between atoms: _353  and  _354
REMARK  144  A    between atoms: _357  and  _359
REMARK  145  A    between atoms: _359  and  _360
REMARK  146  A    between atoms: _359  and  _362
REMARK  147  A    between atoms: _362  and  _363
REMARK  148  A    between atoms: _366  and  _368
REMARK  149  A    between atoms: _368  and  _369
REMARK  150  A    between atoms: _368  and  _371
REMARK  151  A    between atoms: _371  and  _372
REMARK  152  A    between atoms: _375  and  _377
REMARK  153  A    between atoms: _377  and  _378
REMARK  154  A    between atoms: _377  and  _380
REMARK  155  A    between atoms: _380  and  _381
REMARK  156  A    between atoms: _384  and  _386
REMARK  157  A    between atoms: _386  and  _387
REMARK  158  A    between atoms: _386  and  _389
REMARK  159  A    between atoms: _392  and  _394
REMARK  160  A    between atoms: _394  and  _395
REMARK  161  A    between atoms: _394  and  _397
REMARK  162  A    between atoms: _397  and  _398
REMARK  163  A    between atoms: _401  and  _403
REMARK  164  A    between atoms: _403  and  _404
REMARK  165  A    between atoms: _403  and  _406
REMARK  166  A    between atoms: _406  and  _407
REMARK  167  A    between atoms: _407  and  _408
REMARK  168  A    between atoms: _410  and  _412
REMARK  169  A    between atoms: _412  and  _413
REMARK  170  A    between atoms: _412  and  _415
REMARK  171  A    between atoms: _415  and  _416
REMARK  172  A    between atoms: _419  and  _421
REMARK  173  A    between atoms: _421  and  _422
REMARK  174  A    between atoms: _424  and  _426
REMARK  175  A    between atoms: _426  and  _427
REMARK  176  A    between atoms: _429  and  _431
REMARK  177  A    between atoms: _431  and  _432
REMARK  178  A    between atoms: _431  and  _434
REMARK  179  A    between atoms: _434  and  _435
REMARK  180  A    between atoms: _438  and  _440
REMARK  181  A    between atoms: _440  and  _441
REMARK  182  A    between atoms: _443  and  _445
REMARK  183  A    between atoms: _445  and  _446
REMARK  184  A    between atoms: _448  and  _450
REMARK  185  A    between atoms: _450  and  _451
REMARK  186  A    between atoms: _450  and  _453
REMARK  187  A    between atoms: _453  and  _454
REMARK  188  A    between atoms: _460  and  _462
REMARK  189  A    between atoms: _462  and  _463
REMARK  190  A    between atoms: _462  and  _465
REMARK  191  A    between atoms: _465  and  _466
REMARK  192  A    between atoms: _469  and  _471
REMARK  193  A    between atoms: _471  and  _472
REMARK  194  A    between atoms: _471  and  _474
REMARK  195  A    between atoms: _477  and  _479
REMARK  196  A    between atoms: _479  and  _480
REMARK  197  A    between atoms: _479  and  _482
REMARK  198  A    between atoms: _482  and  _483
REMARK  199  A    between atoms: _487  and  _488
REMARK  200  A    between atoms: _493  and  _495
REMARK  201  A    between atoms: _495  and  _496
REMARK  202  A    between atoms: _495  and  _498
REMARK  203  A    between atoms: _498  and  _499
REMARK  204  A    between atoms: _505  and  _506
REMARK  205  A    between atoms: _511  and  _513
REMARK  206  A    between atoms: _513  and  _514
REMARK  207  A    between atoms: _513  and  _516
REMARK  208  A    between atoms: _519  and  _521
REMARK  209  A    between atoms: _521  and  _522
REMARK  210  A    between atoms: _521  and  _524
REMARK  211  A    between atoms: _524  and  _525
REMARK  212  A    between atoms: _530  and  _532
REMARK  213  A    between atoms: _532  and  _533
REMARK  214  A    between atoms: _532  and  _535
REMARK  215  A    between atoms: _535  and  _536
REMARK  216  A    between atoms: _539  and  _541
REMARK  217  A    between atoms: _541  and  _542
REMARK  218  A    between atoms: _541  and  _544
REMARK  219  A    between atoms: _544  and  _545
REMARK  220  A    between atoms: _548  and  _550
REMARK  221  A    between atoms: _550  and  _551
REMARK  222  A    between atoms: _553  and  _555
REMARK  223  A    between atoms: _555  and  _556
REMARK  224  A    between atoms: _555  and  _558
REMARK  225  A    between atoms: _558  and  _559
REMARK  226  A    between atoms: _559  and  _560
REMARK  227  A    between atoms: _560  and  _561
REMARK  228  A    between atoms: _570  and  _572
REMARK  229  A    between atoms: _572  and  _573
REMARK  230  A    between atoms: _572  and  _575
REMARK  231  A    between atoms: _575  and  _576
REMARK                            x       y       z     vdW  Elec       q    Type
REMARK                         _______ _______ _______ _____ _____    ______ ____
ROOT
ATOM      1  O   HOH     1      21.674   4.510  18.989  0.00  0.00    +0.000 OA
ENDROOT
TORSDOF 0
REMARK  Name = ../refined-set-2016/2fgv/2fgv_pocket.pdb
REMARK  231 active torsions:
REMARK  status: ('A' for Active; 'I' for Inactive)
REMARK    1  A    between atoms: _1  and  _3
REMARK    2  A    between atoms: _3  and  _4
REMARK    3  A    between atoms: _3  and  _6
REMARK    4  A    between atoms: _6  and  _7
REMARK    5  A    between atoms: _7  and  _8
REMARK    6  A    between atoms: _8  and  _9
REMARK    7  A    between atoms: _18  and  _20
REMARK    8  A    between atoms: _20  and  _21
REMARK    9  A    between atoms: _20  and  _23
REMARK   10  A    between atoms: _23  and  _24
REMARK   11  A    between atoms: _27  and  _29
REMARK   12  A    between atoms: _29  and  _30
REMARK   13  A    between atoms: _29  and  _32
REMARK   14  A    between atoms: _32  and  _33
REMARK   15  A    between atoms: _36  and  _38
REMARK   16  A    between atoms: _38  and  _39
REMARK   17  A    between atoms: _38  and  _41
REMARK   18  A    between atoms: _41  and  _42
REMARK   19  A    between atoms: _45  and  _47
REMARK   20  A    between atoms: _47  and  _48
REMARK   21  A    between atoms: _47  and  _50
REMARK   22  A    between atoms: _50  and  _51
REMARK   23  A    between atoms: _54  and  _56
REMARK   24  A    between atoms: _56  and  _57
REMARK   25  A    between atoms: _59  and  _61
REMARK   26  A    between atoms: _61  and  _62
REMARK   27  A    between atoms: _65  and  _67
REMARK   28  A    between atoms: _67  and  _68
REMARK   29  A    between atoms: _67  and  _70
REMARK   30  A    between atoms: _70  and  _71
REMARK   31  A    between atoms: _74  and  _76
REMARK   32  A    between atoms: _76  and  _77
REMARK   33  A    between atoms: _76  and  _79
REMARK   34  A    between atoms: _79  and  _80
REMARK   35  A    between atoms: _83  and  _85
REMARK   36  A    between atoms: _85  and  _86
REMARK   37  A    between atoms: _85  and  _88
REMARK   38  A    between atoms: _88  and  _89
REMARK   39  A    between atoms: _92  and  _94
REMARK   40  A    between atoms: _94  and  _95
REMARK   41  A    between atoms: _94  and  _97
REMARK   42  A    between atoms: _100  and  _102
REMARK   43  A    between atoms: _102  and  _103
REMARK   44  A    between atoms: _102  and  _105
REMARK   45  A    between atoms: _105  and  _106
REMARK   46  A    between atoms: _106  and  _107
REMARK   47  A    between atoms: _107  and  _108
REMARK   48  A    between atoms: _108  and  _109
REMARK   49  A    between atoms: _113  and  _115
REMARK   50  A    between atoms: _115  and  _116
REMARK   51  A    between atoms: _115  and  _118
REMARK   52  A    between atoms: _118  and  _119
REMARK   53  A    between atoms: _119  and  _120
REMARK   54  A    between atoms: _122  and  _124
REMARK   55  A    between atoms: _124  and  _125
REMARK   56  A    between atoms: _124  and  _127
REMARK   57  A    between atoms: _127  and  _128
REMARK   58  A    between atoms: _131  and  _133
REMARK   59  A    between atoms: _133  and  _134
REMARK   60  A    between atoms: _136  and  _138
REMARK   61  A    between atoms: _138  and  _139
REMARK   62  A    between atoms: _141  and  _143
REMARK   63  A    between atoms: _143  and  _144
REMARK   64  A    between atoms: _143  and  _146
REMARK   65  A    between atoms: _146  and  _147
REMARK   66  A    between atoms: _150  and  _152
REMARK   67  A    between atoms: _152  and  _153
REMARK   68  A    between atoms: _155  and  _157
REMARK   69  A    between atoms: _157  and  _158
REMARK   70  A    between atoms: _160  and  _162
REMARK   71  A    between atoms: _162  and  _163
REMARK   72  A    between atoms: _162  and  _165
REMARK   73  A    between atoms: _165  and  _166
REMARK   74  A    between atoms: _172  and  _174
REMARK   75  A    between atoms: _174  and  _175
REMARK   76  A    between atoms: _174  and  _177
REMARK   77  A    between atoms: _177  and  _178
REMARK   78  A    between atoms: _181  and  _183
REMARK   79  A    between atoms: _183  and  _184
REMARK   80  A    between atoms: _183  and  _186
REMARK   81  A    between atoms: _189  and  _191
REMARK   82  A    between atoms: _191  and  _192
REMARK   83  A    between atoms: _191  and  _194
REMARK   84  A    between atoms: _194  and  _195
REMARK   85  A    between atoms: _199  and  _200
REMARK   86  A    between atoms: _205  and  _207
REMARK   87  A    between atoms: _207  and  _208
REMARK   88  A    between atoms: _207  and  _210
REMARK   89  A    between atoms: _210  and  _211
REMARK   90  A    between atoms: _217  and  _218
REMARK   91  A    between atoms: _223  and  _225
REMARK   92  A    between atoms: _225  and  _226
REMARK   93  A    between atoms: _225  and  _228
REMARK   94  A    between atoms: _231  and  _233
REMARK   95  A    between atoms: _233  and  _234
REMARK   96  A    between atoms: _233  and  _236
REMARK   97  A    between atoms: _236  and  _237
REMARK   98  A    between atoms: _242  and  _244
REMARK   99  A    between atoms: _244  and  _245
REMARK  100  A    between atoms: _244  and  _247
REMARK  101  A    between atoms: _247  and  _248
REMARK  102  A    between atoms: _251  and  _253
REMARK  103  A    between atoms: _253  and  _254
REMARK  104  A    between atoms: _253  and  _256
REMARK  105  A    between atoms: _256  and  _257
REMARK  106  A    between atoms: _260  and  _262
REMARK  107  A    between atoms: _262  and  _263
REMARK  108  A    between atoms: _265  and  _267
REMARK  109  A    between atoms: _267  and  _268
REMARK  110  A    between atoms: _267  and  _270
REMARK  111  A    between atoms: _270  and  _271
REMARK  112  A    between atoms: _271  and  _272
REMARK  113  A    between atoms: _272  and  _273
REMARK  114  A    between atoms: _282  and  _284
REMARK  115  A    between atoms: _284  and  _285
REMARK  116  A    between atoms: _284  and  _287
REMARK  117  A    between atoms: _287  and  _288
REMARK  118  A    between atoms: _293  and  _295
REMARK  119  A    between atoms: _295  and  _296
REMARK  120  A    between atoms: _295  and  _298
REMARK  121  A    between atoms: _298  and  _299
REMARK  122  A    between atoms: _299  and  _300
REMARK  123  A    between atoms: _300  and  _301
REMARK  124  A    between atoms: _310  and  _312
REMARK  125  A    between atoms: _312  and  _313
REMARK  126  A    between atoms: _312  and  _315
REMARK  127  A    between atoms: _315  and  _316
REMARK  128  A    between atoms: _319  and  _321
REMARK  129  A    between atoms: _321  and  _322
REMARK  130  A    between atoms: _321  and  _324
REMARK  131  A    between atoms: _324  and  _325
REMARK  132  A    between atoms: _328  and  _330
REMARK  133  A    between atoms: _330  and  _331
REMARK  134  A    between atoms: _330  and  _333
REMARK  135  A    between atoms: _333  and  _334
REMARK  136  A    between atoms: _337  and  _339
REMARK  137  A    between atoms: _339  and  _340
REMARK  138  A    between atoms: _339  and  _342
REMARK  139  A    between atoms: _342  and  _343
REMARK  140  A    between atoms: _346  and  _348
REMARK  141  A    between atoms: _348  and  _349
REMARK  142  A    between atoms: _351  and  _353
REMARK  143  A    between atoms: _353  and  _354
REMARK  144  A    between atoms: _357  and  _359
REMARK  145  A    between atoms: _359  and  _360
REMARK  146  A    between atoms: _359  and  _362
REMARK  147  A    between atoms: _362  and  _363
REMARK  148  A    between atoms: _366  and  _368
REMARK  149  A    between atoms: _368  and  _369
REMARK  150  A    between atoms: _368  and  _371
REMARK  151  A    between atoms: _371  and  _372
REMARK  152  A    between atoms: _375  and  _377
REMARK  153  A    between atoms: _377  and  _378
REMARK  154  A    between atoms: _377  and  _380
REMARK  155  A    between atoms: _380  and  _381
REMARK  156  A    between atoms: _384  and  _386
REMARK  157  A    between atoms: _386  and  _387
REMARK  158  A    between atoms: _386  and  _389
REMARK  159  A    between atoms: _392  and  _394
REMARK  160  A    between atoms: _394  and  _395
REMARK  161  A    between atoms: _394  and  _397
REMARK  162  A    between atoms: _397  and  _398
REMARK  163  A    between atoms: _401  and  _403
REMARK  164  A    between atoms: _403  and  _404
REMARK  165  A    between atoms: _403  and  _406
REMARK  166  A    between atoms: _406  and  _407
REMARK  167  A    between atoms: _407  and  _408
REMARK  168  A    between atoms: _410  and  _412
REMARK  169  A    between atoms: _412  and  _413
REMARK  170  A    between atoms: _412  and  _415
REMARK  171  A    between atoms: _415  and  _416
REMARK  172  A    between atoms: _419  and  _421
REMARK  173  A    between atoms: _421  and  _422
REMARK  174  A    between atoms: _424  and  _426
REMARK  175  A    between atoms: _426  and  _427
REMARK  176  A    between atoms: _429  and  _431
REMARK  177  A    between atoms: _431  and  _432
REMARK  178  A    between atoms: _431  and  _434
REMARK  179  A    between atoms: _434  and  _435
REMARK  180  A    between atoms: _438  and  _440
REMARK  181  A    between atoms: _440  and  _441
REMARK  182  A    between atoms: _443  and  _445
REMARK  183  A    between atoms: _445  and  _446
REMARK  184  A    between atoms: _448  and  _450
REMARK  185  A    between atoms: _450  and  _451
REMARK  186  A    between atoms: _450  and  _453
REMARK  187  A    between atoms: _453  and  _454
REMARK  188  A    between atoms: _460  and  _462
REMARK  189  A    between atoms: _462  and  _463
REMARK  190  A    between atoms: _462  and  _465
REMARK  191  A    between atoms: _465  and  _466
REMARK  192  A    between atoms: _469  and  _471
REMARK  193  A    between atoms: _471  and  _472
REMARK  194  A    between atoms: _471  and  _474
REMARK  195  A    between atoms: _477  and  _479
REMARK  196  A    between atoms: _479  and  _480
REMARK  197  A    between atoms: _479  and  _482
REMARK  198  A    between atoms: _482  and  _483
REMARK  199  A    between atoms: _487  and  _488
REMARK  200  A    between atoms: _493  and  _495
REMARK  201  A    between atoms: _495  and  _496
REMARK  202  A    between atoms: _495  and  _498
REMARK  203  A    between atoms: _498  and  _499
REMARK  204  A    between atoms: _505  and  _506
REMARK  205  A    between atoms: _511  and  _513
REMARK  206  A    between atoms: _513  and  _514
REMARK  207  A    between atoms: _513  and  _516
REMARK  208  A    between atoms: _519  and  _521
REMARK  209  A    between atoms: _521  and  _522
REMARK  210  A    between atoms: _521  and  _524
REMARK  211  A    between atoms: _524  and  _525
REMARK  212  A    between atoms: _530  and  _532
REMARK  213  A    between atoms: _532  and  _533
REMARK  214  A    between atoms: _532  and  _535
REMARK  215  A    between atoms: _535  and  _536
REMARK  216  A    between atoms: _539  and  _541
REMARK  217  A    between atoms: _541  and  _542
REMARK  218  A    between atoms: _541  and  _544
REMARK  219  A    between atoms: _544  and  _545
REMARK  220  A    between atoms: _548  and  _550
REMARK  221  A    between atoms: _550  and  _551
REMARK  222  A    between atoms: _553  and  _555
REMARK  223  A    between atoms: _555  and  _556
REMARK  224  A    between atoms: _555  and  _558
REMARK  225  A    between atoms: _558  and  _559
REMARK  226  A    between atoms: _559  and  _560
REMARK  227  A    between atoms: _560  and  _561
REMARK  228  A    between atoms: _570  and  _572
REMARK  229  A    between atoms: _572  and  _573
REMARK  230  A    between atoms: _572  and  _575
REMARK  231  A    between atoms: _575  and  _576
REMARK                            x       y       z     vdW  Elec       q    Type
REMARK                         _______ _______ _______ _____ _____    ______ ____
ROOT
ATOM      1  O   HOH     1      25.176  -7.449  22.004  0.00  0.00    +0.000 OA
ENDROOT
TORSDOF 0
REMARK  Name = ../refined-set-2016/2fgv/2fgv_pocket.pdb
REMARK  231 active torsions:
REMARK  status: ('A' for Active; 'I' for Inactive)
REMARK    1  A    between atoms: _1  and  _3
REMARK    2  A    between atoms: _3  and  _4
REMARK    3  A    between atoms: _3  and  _6
REMARK    4  A    between atoms: _6  and  _7
REMARK    5  A    between atoms: _7  and  _8
REMARK    6  A    between atoms: _8  and  _9
REMARK    7  A    between atoms: _18  and  _20
REMARK    8  A    between atoms: _20  and  _21
REMARK    9  A    between atoms: _20  and  _23
REMARK   10  A    between atoms: _23  and  _24
REMARK   11  A    between atoms: _27  and  _29
REMARK   12  A    between atoms: _29  and  _30
REMARK   13  A    between atoms: _29  and  _32
REMARK   14  A    between atoms: _32  and  _33
REMARK   15  A    between atoms: _36  and  _38
REMARK   16  A    between atoms: _38  and  _39
REMARK   17  A    between atoms: _38  and  _41
REMARK   18  A    between atoms: _41  and  _42
REMARK   19  A    between atoms: _45  and  _47
REMARK   20  A    between atoms: _47  and  _48
REMARK   21  A    between atoms: _47  and  _50
REMARK   22  A    between atoms: _50  and  _51
REMARK   23  A    between atoms: _54  and  _56
REMARK   24  A    between atoms: _56  and  _57
REMARK   25  A    between atoms: _59  and  _61
REMARK   26  A    between atoms: _61  and  _62
REMARK   27  A    between atoms: _65  and  _67
REMARK   28  A    between atoms: _67  and  _68
REMARK   29  A    between atoms: _67  and  _70
REMARK   30  A    between atoms: _70  and  _71
REMARK   31  A    between atoms: _74  and  _76
REMARK   32  A    between atoms: _76  and  _77
REMARK   33  A    between atoms: _76  and  _79
REMARK   34  A    between atoms: _79  and  _80
REMARK   35  A    between atoms: _83  and  _85
REMARK   36  A    between atoms: _85  and  _86
REMARK   37  A    between atoms: _85  and  _88
REMARK   38  A    between atoms: _88  and  _89
REMARK   39  A    between atoms: _92  and  _94
REMARK   40  A    between atoms: _94  and  _95
REMARK   41  A    between atoms: _94  and  _97
REMARK   42  A    between atoms: _100  and  _102
REMARK   43  A    between atoms: _102  and  _103
REMARK   44  A    between atoms: _102  and  _105
REMARK   45  A    between atoms: _105  and  _106
REMARK   46  A    between atoms: _106  and  _107
REMARK   47  A    between atoms: _107  and  _108
REMARK   48  A    between atoms: _108  and  _109
REMARK   49  A    between atoms: _113  and  _115
REMARK   50  A    between atoms: _115  and  _116
REMARK   51  A    between atoms: _115  and  _118
REMARK   52  A    between atoms: _118  and  _119
REMARK   53  A    between atoms: _119  and  _120
REMARK   54  A    between atoms: _122  and  _124
REMARK   55  A    between atoms: _124  and  _125
REMARK   56  A    between atoms: _124  and  _127
REMARK   57  A    between atoms: _127  and  _128
REMARK   58  A    between atoms: _131  and  _133
REMARK   59  A    between atoms: _133  and  _134
REMARK   60  A    between atoms: _136  and  _138
REMARK   61  A    between atoms: _138  and  _139
REMARK   62  A    between atoms: _141  and  _143
REMARK   63  A    between atoms: _143  and  _144
REMARK   64  A    between atoms: _143  and  _146
REMARK   65  A    between atoms: _146  and  _147
REMARK   66  A    between atoms: _150  and  _152
REMARK   67  A    between atoms: _152  and  _153
REMARK   68  A    between atoms: _155  and  _157
REMARK   69  A    between atoms: _157  and  _158
REMARK   70  A    between atoms: _160  and  _162
REMARK   71  A    between atoms: _162  and  _163
REMARK   72  A    between atoms: _162  and  _165
REMARK   73  A    between atoms: _165  and  _166
REMARK   74  A    between atoms: _172  and  _174
REMARK   75  A    between atoms: _174  and  _175
REMARK   76  A    between atoms: _174  and  _177
REMARK   77  A    between atoms: _177  and  _178
REMARK   78  A    between atoms: _181  and  _183
REMARK   79  A    between atoms: _183  and  _184
REMARK   80  A    between atoms: _183  and  _186
REMARK   81  A    between atoms: _189  and  _191
REMARK   82  A    between atoms: _191  and  _192
REMARK   83  A    between atoms: _191  and  _194
REMARK   84  A    between atoms: _194  and  _195
REMARK   85  A    between atoms: _199  and  _200
REMARK   86  A    between atoms: _205  and  _207
REMARK   87  A    between atoms: _207  and  _208
REMARK   88  A    between atoms: _207  and  _210
REMARK   89  A    between atoms: _210  and  _211
REMARK   90  A    between atoms: _217  and  _218
REMARK   91  A    between atoms: _223  and  _225
REMARK   92  A    between atoms: _225  and  _226
REMARK   93  A    between atoms: _225  and  _228
REMARK   94  A    between atoms: _231  and  _233
REMARK   95  A    between atoms: _233  and  _234
REMARK   96  A    between atoms: _233  and  _236
REMARK   97  A    between atoms: _236  and  _237
REMARK   98  A    between atoms: _242  and  _244
REMARK   99  A    between atoms: _244  and  _245
REMARK  100  A    between atoms: _244  and  _247
REMARK  101  A    between atoms: _247  and  _248
REMARK  102  A    between atoms: _251  and  _253
REMARK  103  A    between atoms: _253  and  _254
REMARK  104  A    between atoms: _253  and  _256
REMARK  105  A    between atoms: _256  and  _257
REMARK  106  A    between atoms: _260  and  _262
REMARK  107  A    between atoms: _262  and  _263
REMARK  108  A    between atoms: _265  and  _267
REMARK  109  A    between atoms: _267  and  _268
REMARK  110  A    between atoms: _267  and  _270
REMARK  111  A    between atoms: _270  and  _271
REMARK  112  A    between atoms: _271  and  _272
REMARK  113  A    between atoms: _272  and  _273
REMARK  114  A    between atoms: _282  and  _284
REMARK  115  A    between atoms: _284  and  _285
REMARK  116  A    between atoms: _284  and  _287
REMARK  117  A    between atoms: _287  and  _288
REMARK  118  A    between atoms: _293  and  _295
REMARK  119  A    between atoms: _295  and  _296
REMARK  120  A    between atoms: _295  and  _298
REMARK  121  A    between atoms: _298  and  _299
REMARK  122  A    between atoms: _299  and  _300
REMARK  123  A    between atoms: _300  and  _301
REMARK  124  A    between atoms: _310  and  _312
REMARK  125  A    between atoms: _312  and  _313
REMARK  126  A    between atoms: _312  and  _315
REMARK  127  A    between atoms: _315  and  _316
REMARK  128  A    between atoms: _319  and  _321
REMARK  129  A    between atoms: _321  and  _322
REMARK  130  A    between atoms: _321  and  _324
REMARK  131  A    between atoms: _324  and  _325
REMARK  132  A    between atoms: _328  and  _330
REMARK  133  A    between atoms: _330  and  _331
REMARK  134  A    between atoms: _330  and  _333
REMARK  135  A    between atoms: _333  and  _334
REMARK  136  A    between atoms: _337  and  _339
REMARK  137  A    between atoms: _339  and  _340
REMARK  138  A    between atoms: _339  and  _342
REMARK  139  A    between atoms: _342  and  _343
REMARK  140  A    between atoms: _346  and  _348
REMARK  141  A    between atoms: _348  and  _349
REMARK  142  A    between atoms: _351  and  _353
REMARK  143  A    between atoms: _353  and  _354
REMARK  144  A    between atoms: _357  and  _359
REMARK  145  A    between atoms: _359  and  _360
REMARK  146  A    between atoms: _359  and  _362
REMARK  147  A    between atoms: _362  and  _363
REMARK  148  A    between atoms: _366  and  _368
REMARK  149  A    between atoms: _368  and  _369
REMARK  150  A    between atoms: _368  and  _371
REMARK  151  A    between atoms: _371  and  _372
REMARK  152  A    between atoms: _375  and  _377
REMARK  153  A    between atoms: _377  and  _378
REMARK  154  A    between atoms: _377  and  _380
REMARK  155  A    between atoms: _380  and  _381
REMARK  156  A    between atoms: _384  and  _386
REMARK  157  A    between atoms: _386  and  _387
REMARK  158  A    between atoms: _386  and  _389
REMARK  159  A    between atoms: _392  and  _394
REMARK  160  A    between atoms: _394  and  _395
REMARK  161  A    between atoms: _394  and  _397
REMARK  162  A    between atoms: _397  and  _398
REMARK  163  A    between atoms: _401  and  _403
REMARK  164  A    between atoms: _403  and  _404
REMARK  165  A    between atoms: _403  and  _406
REMARK  166  A    between atoms: _406  and  _407
REMARK  167  A    between atoms: _407  and  _408
REMARK  168  A    between atoms: _410  and  _412
REMARK  169  A    between atoms: _412  and  _413
REMARK  170  A    between atoms: _412  and  _415
REMARK  171  A    between atoms: _415  and  _416
REMARK  172  A    between atoms: _419  and  _421
REMARK  173  A    between atoms: _421  and  _422
REMARK  174  A    between atoms: _424  and  _426
REMARK  175  A    between atoms: _426  and  _427
REMARK  176  A    between atoms: _429  and  _431
REMARK  177  A    between atoms: _431  and  _432
REMARK  178  A    between atoms: _431  and  _434
REMARK  179  A    between atoms: _434  and  _435
REMARK  180  A    between atoms: _438  and  _440
REMARK  181  A    between atoms: _440  and  _441
REMARK  182  A    between atoms: _443  and  _445
REMARK  183  A    between atoms: _445  and  _446
REMARK  184  A    between atoms: _448  and  _450
REMARK  185  A    between atoms: _450  and  _451
REMARK  186  A    between atoms: _450  and  _453
REMARK  187  A    between atoms: _453  and  _454
REMARK  188  A    between atoms: _460  and  _462
REMARK  189  A    between atoms: _462  and  _463
REMARK  190  A    between atoms: _462  and  _465
REMARK  191  A    between atoms: _465  and  _466
REMARK  192  A    between atoms: _469  and  _471
REMARK  193  A    between atoms: _471  and  _472
REMARK  194  A    between atoms: _471  and  _474
REMARK  195  A    between atoms: _477  and  _479
REMARK  196  A    between atoms: _479  and  _480
REMARK  197  A    between atoms: _479  and  _482
REMARK  198  A    between atoms: _482  and  _483
REMARK  199  A    between atoms: _487  and  _488
REMARK  200  A    between atoms: _493  and  _495
REMARK  201  A    between atoms: _495  and  _496
REMARK  202  A    between atoms: _495  and  _498
REMARK  203  A    between atoms: _498  and  _499
REMARK  204  A    between atoms: _505  and  _506
REMARK  205  A    between atoms: _511  and  _513
REMARK  206  A    between atoms: _513  and  _514
REMARK  207  A    between atoms: _513  and  _516
REMARK  208  A    between atoms: _519  and  _521
REMARK  209  A    between atoms: _521  and  _522
REMARK  210  A    between atoms: _521  and  _524
REMARK  211  A    between atoms: _524  and  _525
REMARK  212  A    between atoms: _530  and  _532
REMARK  213  A    between atoms: _532  and  _533
REMARK  214  A    between atoms: _532  and  _535
REMARK  215  A    between atoms: _535  and  _536
REMARK  216  A    between atoms: _539  and  _541
REMARK  217  A    between atoms: _541  and  _542
REMARK  218  A    between atoms: _541  and  _544
REMARK  219  A    between atoms: _544  and  _545
REMARK  220  A    between atoms: _548  and  _550
REMARK  221  A    between atoms: _550  and  _551
REMARK  222  A    between atoms: _553  and  _555
REMARK  223  A    between atoms: _555  and  _556
REMARK  224  A    between atoms: _555  and  _558
REMARK  225  A    between atoms: _558  and  _559
REMARK  226  A    between atoms: _559  and  _560
REMARK  227  A    between atoms: _560  and  _561
REMARK  228  A    between atoms: _570  and  _572
REMARK  229  A    between atoms: _572  and  _573
REMARK  230  A    between atoms: _572  and  _575
REMARK  231  A    between atoms: _575  and  _576
REMARK                            x       y       z     vdW  Elec       q    Type
REMARK                         _______ _______ _______ _____ _____    ______ ____
ROOT
ATOM      1  O   HOH     1      19.453   6.030  17.835  0.00  0.00    +0.000 OA
ENDROOT
TORSDOF 0
REMARK  Name = ../refined-set-2016/2fgv/2fgv_pocket.pdb
REMARK  231 active torsions:
REMARK  status: ('A' for Active; 'I' for Inactive)
REMARK    1  A    between atoms: _1  and  _3
REMARK    2  A    between atoms: _3  and  _4
REMARK    3  A    between atoms: _3  and  _6
REMARK    4  A    between atoms: _6  and  _7
REMARK    5  A    between atoms: _7  and  _8
REMARK    6  A    between atoms: _8  and  _9
REMARK    7  A    between atoms: _18  and  _20
REMARK    8  A    between atoms: _20  and  _21
REMARK    9  A    between atoms: _20  and  _23
REMARK   10  A    between atoms: _23  and  _24
REMARK   11  A    between atoms: _27  and  _29
REMARK   12  A    between atoms: _29  and  _30
REMARK   13  A    between atoms: _29  and  _32
REMARK   14  A    between atoms: _32  and  _33
REMARK   15  A    between atoms: _36  and  _38
REMARK   16  A    between atoms: _38  and  _39
REMARK   17  A    between atoms: _38  and  _41
REMARK   18  A    between atoms: _41  and  _42
REMARK   19  A    between atoms: _45  and  _47
REMARK   20  A    between atoms: _47  and  _48
REMARK   21  A    between atoms: _47  and  _50
REMARK   22  A    between atoms: _50  and  _51
REMARK   23  A    between atoms: _54  and  _56
REMARK   24  A    between atoms: _56  and  _57
REMARK   25  A    between atoms: _59  and  _61
REMARK   26  A    between atoms: _61  and  _62
REMARK   27  A    between atoms: _65  and  _67
REMARK   28  A    between atoms: _67  and  _68
REMARK   29  A    between atoms: _67  and  _70
REMARK   30  A    between atoms: _70  and  _71
REMARK   31  A    between atoms: _74  and  _76
REMARK   32  A    between atoms: _76  and  _77
REMARK   33  A    between atoms: _76  and  _79
REMARK   34  A    between atoms: _79  and  _80
REMARK   35  A    between atoms: _83  and  _85
REMARK   36  A    between atoms: _85  and  _86
REMARK   37  A    between atoms: _85  and  _88
REMARK   38  A    between atoms: _88  and  _89
REMARK   39  A    between atoms: _92  and  _94
REMARK   40  A    between atoms: _94  and  _95
REMARK   41  A    between atoms: _94  and  _97
REMARK   42  A    between atoms: _100  and  _102
REMARK   43  A    between atoms: _102  and  _103
REMARK   44  A    between atoms: _102  and  _105
REMARK   45  A    between atoms: _105  and  _106
REMARK   46  A    between atoms: _106  and  _107
REMARK   47  A    between atoms: _107  and  _108
REMARK   48  A    between atoms: _108  and  _109
REMARK   49  A    between atoms: _113  and  _115
REMARK   50  A    between atoms: _115  and  _116
REMARK   51  A    between atoms: _115  and  _118
REMARK   52  A    between atoms: _118  and  _119
REMARK   53  A    between atoms: _119  and  _120
REMARK   54  A    between atoms: _122  and  _124
REMARK   55  A    between atoms: _124  and  _125
REMARK   56  A    between atoms: _124  and  _127
REMARK   57  A    between atoms: _127  and  _128
REMARK   58  A    between atoms: _131  and  _133
REMARK   59  A    between atoms: _133  and  _134
REMARK   60  A    between atoms: _136  and  _138
REMARK   61  A    between atoms: _138  and  _139
REMARK   62  A    between atoms: _141  and  _143
REMARK   63  A    between atoms: _143  and  _144
REMARK   64  A    between atoms: _143  and  _146
REMARK   65  A    between atoms: _146  and  _147
REMARK   66  A    between atoms: _150  and  _152
REMARK   67  A    between atoms: _152  and  _153
REMARK   68  A    between atoms: _155  and  _157
REMARK   69  A    between atoms: _157  and  _158
REMARK   70  A    between atoms: _160  and  _162
REMARK   71  A    between atoms: _162  and  _163
REMARK   72  A    between atoms: _162  and  _165
REMARK   73  A    between atoms: _165  and  _166
REMARK   74  A    between atoms: _172  and  _174
REMARK   75  A    between atoms: _174  and  _175
REMARK   76  A    between atoms: _174  and  _177
REMARK   77  A    between atoms: _177  and  _178
REMARK   78  A    between atoms: _181  and  _183
REMARK   79  A    between atoms: _183  and  _184
REMARK   80  A    between atoms: _183  and  _186
REMARK   81  A    between atoms: _189  and  _191
REMARK   82  A    between atoms: _191  and  _192
REMARK   83  A    between atoms: _191  and  _194
REMARK   84  A    between atoms: _194  and  _195
REMARK   85  A    between atoms: _199  and  _200
REMARK   86  A    between atoms: _205  and  _207
REMARK   87  A    between atoms: _207  and  _208
REMARK   88  A    between atoms: _207  and  _210
REMARK   89  A    between atoms: _210  and  _211
REMARK   90  A    between atoms: _217  and  _218
REMARK   91  A    between atoms: _223  and  _225
REMARK   92  A    between atoms: _225  and  _226
REMARK   93  A    between atoms: _225  and  _228
REMARK   94  A    between atoms: _231  and  _233
REMARK   95  A    between atoms: _233  and  _234
REMARK   96  A    between atoms: _233  and  _236
REMARK   97  A    between atoms: _236  and  _237
REMARK   98  A    between atoms: _242  and  _244
REMARK   99  A    between atoms: _244  and  _245
REMARK  100  A    between atoms: _244  and  _247
REMARK  101  A    between atoms: _247  and  _248
REMARK  102  A    between atoms: _251  and  _253
REMARK  103  A    between atoms: _253  and  _254
REMARK  104  A    between atoms: _253  and  _256
REMARK  105  A    between atoms: _256  and  _257
REMARK  106  A    between atoms: _260  and  _262
REMARK  107  A    between atoms: _262  and  _263
REMARK  108  A    between atoms: _265  and  _267
REMARK  109  A    between atoms: _267  and  _268
REMARK  110  A    between atoms: _267  and  _270
REMARK  111  A    between atoms: _270  and  _271
REMARK  112  A    between atoms: _271  and  _272
REMARK  113  A    between atoms: _272  and  _273
REMARK  114  A    between atoms: _282  and  _284
REMARK  115  A    between atoms: _284  and  _285
REMARK  116  A    between atoms: _284  and  _287
REMARK  117  A    between atoms: _287  and  _288
REMARK  118  A    between atoms: _293  and  _295
REMARK  119  A    between atoms: _295  and  _296
REMARK  120  A    between atoms: _295  and  _298
REMARK  121  A    between atoms: _298  and  _299
REMARK  122  A    between atoms: _299  and  _300
REMARK  123  A    between atoms: _300  and  _301
REMARK  124  A    between atoms: _310  and  _312
REMARK  125  A    between atoms: _312  and  _313
REMARK  126  A    between atoms: _312  and  _315
REMARK  127  A    between atoms: _315  and  _316
REMARK  128  A    between atoms: _319  and  _321
REMARK  129  A    between atoms: _321  and  _322
REMARK  130  A    between atoms: _321  and  _324
REMARK  131  A    between atoms: _324  and  _325
REMARK  132  A    between atoms: _328  and  _330
REMARK  133  A    between atoms: _330  and  _331
REMARK  134  A    between atoms: _330  and  _333
REMARK  135  A    between atoms: _333  and  _334
REMARK  136  A    between atoms: _337  and  _339
REMARK  137  A    between atoms: _339  and  _340
REMARK  138  A    between atoms: _339  and  _342
REMARK  139  A    between atoms: _342  and  _343
REMARK  140  A    between atoms: _346  and  _348
REMARK  141  A    between atoms: _348  and  _349
REMARK  142  A    between atoms: _351  and  _353
REMARK  143  A    between atoms: _353  and  _354
REMARK  144  A    between atoms: _357  and  _359
REMARK  145  A    between atoms: _359  and  _360
REMARK  146  A    between atoms: _359  and  _362
REMARK  147  A    between atoms: _362  and  _363
REMARK  148  A    between atoms: _366  and  _368
REMARK  149  A    between atoms: _368  and  _369
REMARK  150  A    between atoms: _368  and  _371
REMARK  151  A    between atoms: _371  and  _372
REMARK  152  A    between atoms: _375  and  _377
REMARK  153  A    between atoms: _377  and  _378
REMARK  154  A    between atoms: _377  and  _380
REMARK  155  A    between atoms: _380  and  _381
REMARK  156  A    between atoms: _384  and  _386
REMARK  157  A    between atoms: _386  and  _387
REMARK  158  A    between atoms: _386  and  _389
REMARK  159  A    between atoms: _392  and  _394
REMARK  160  A    between atoms: _394  and  _395
REMARK  161  A    between atoms: _394  and  _397
REMARK  162  A    between atoms: _397  and  _398
REMARK  163  A    between atoms: _401  and  _403
REMARK  164  A    between atoms: _403  and  _404
REMARK  165  A    between atoms: _403  and  _406
REMARK  166  A    between atoms: _406  and  _407
REMARK  167  A    between atoms: _407  and  _408
REMARK  168  A    between atoms: _410  and  _412
REMARK  169  A    between atoms: _412  and  _413
REMARK  170  A    between atoms: _412  and  _415
REMARK  171  A    between atoms: _415  and  _416
REMARK  172  A    between atoms: _419  and  _421
REMARK  173  A    between atoms: _421  and  _422
REMARK  174  A    between atoms: _424  and  _426
REMARK  175  A    between atoms: _426  and  _427
REMARK  176  A    between atoms: _429  and  _431
REMARK  177  A    between atoms: _431  and  _432
REMARK  178  A    between atoms: _431  and  _434
REMARK  179  A    between atoms: _434  and  _435
REMARK  180  A    between atoms: _438  and  _440
REMARK  181  A    between atoms: _440  and  _441
REMARK  182  A    between atoms: _443  and  _445
REMARK  183  A    between atoms: _445  and  _446
REMARK  184  A    between atoms: _448  and  _450
REMARK  185  A    between atoms: _450  and  _451
REMARK  186  A    between atoms: _450  and  _453
REMARK  187  A    between atoms: _453  and  _454
REMARK  188  A    between atoms: _460  and  _462
REMARK  189  A    between atoms: _462  and  _463
REMARK  190  A    between atoms: _462  and  _465
REMARK  191  A    between atoms: _465  and  _466
REMARK  192  A    between atoms: _469  and  _471
REMARK  193  A    between atoms: _471  and  _472
REMARK  194  A    between atoms: _471  and  _474
REMARK  195  A    between atoms: _477  and  _479
REMARK  196  A    between atoms: _479  and  _480
REMARK  197  A    between atoms: _479  and  _482
REMARK  198  A    between atoms: _482  and  _483
REMARK  199  A    between atoms: _487  and  _488
REMARK  200  A    between atoms: _493  and  _495
REMARK  201  A    between atoms: _495  and  _496
REMARK  202  A    between atoms: _495  and  _498
REMARK  203  A    between atoms: _498  and  _499
REMARK  204  A    between atoms: _505  and  _506
REMARK  205  A    between atoms: _511  and  _513
REMARK  206  A    between atoms: _513  and  _514
REMARK  207  A    between atoms: _513  and  _516
REMARK  208  A    between atoms: _519  and  _521
REMARK  209  A    between atoms: _521  and  _522
REMARK  210  A    between atoms: _521  and  _524
REMARK  211  A    between atoms: _524  and  _525
REMARK  212  A    between atoms: _530  and  _532
REMARK  213  A    between atoms: _532  and  _533
REMARK  214  A    between atoms: _532  and  _535
REMARK  215  A    between atoms: _535  and  _536
REMARK  216  A    between atoms: _539  and  _541
REMARK  217  A    between atoms: _541  and  _542
REMARK  218  A    between atoms: _541  and  _544
REMARK  219  A    between atoms: _544  and  _545
REMARK  220  A    between atoms: _548  and  _550
REMARK  221  A    between atoms: _550  and  _551
REMARK  222  A    between atoms: _553  and  _555
REMARK  223  A    between atoms: _555  and  _556
REMARK  224  A    between atoms: _555  and  _558
REMARK  225  A    between atoms: _558  and  _559
REMARK  226  A    between atoms: _559  and  _560
REMARK  227  A    between atoms: _560  and  _561
REMARK  228  A    between atoms: _570  and  _572
REMARK  229  A    between atoms: _572  and  _573
REMARK  230  A    between atoms: _572  and  _575
REMARK  231  A    between atoms: _575  and  _576
REMARK                            x       y       z     vdW  Elec       q    Type
REMARK                         _______ _______ _______ _____ _____    ______ ____
ROOT
ATOM      1  O   HOH     1      30.940   5.795  18.784  0.00  0.00    +0.000 OA
ENDROOT
TORSDOF 0
REMARK  Name = ../refined-set-2016/2fgv/2fgv_pocket.pdb
REMARK  231 active torsions:
REMARK  status: ('A' for Active; 'I' for Inactive)
REMARK    1  A    between atoms: _1  and  _3
REMARK    2  A    between atoms: _3  and  _4
REMARK    3  A    between atoms: _3  and  _6
REMARK    4  A    between atoms: _6  and  _7
REMARK    5  A    between atoms: _7  and  _8
REMARK    6  A    between atoms: _8  and  _9
REMARK    7  A    between atoms: _18  and  _20
REMARK    8  A    between atoms: _20  and  _21
REMARK    9  A    between atoms: _20  and  _23
REMARK   10  A    between atoms: _23  and  _24
REMARK   11  A    between atoms: _27  and  _29
REMARK   12  A    between atoms: _29  and  _30
REMARK   13  A    between atoms: _29  and  _32
REMARK   14  A    between atoms: _32  and  _33
REMARK   15  A    between atoms: _36  and  _38
REMARK   16  A    between atoms: _38  and  _39
REMARK   17  A    between atoms: _38  and  _41
REMARK   18  A    between atoms: _41  and  _42
REMARK   19  A    between atoms: _45  and  _47
REMARK   20  A    between atoms: _47  and  _48
REMARK   21  A    between atoms: _47  and  _50
REMARK   22  A    between atoms: _50  and  _51
REMARK   23  A    between atoms: _54  and  _56
REMARK   24  A    between atoms: _56  and  _57
REMARK   25  A    between atoms: _59  and  _61
REMARK   26  A    between atoms: _61  and  _62
REMARK   27  A    between atoms: _65  and  _67
REMARK   28  A    between atoms: _67  and  _68
REMARK   29  A    between atoms: _67  and  _70
REMARK   30  A    between atoms: _70  and  _71
REMARK   31  A    between atoms: _74  and  _76
REMARK   32  A    between atoms: _76  and  _77
REMARK   33  A    between atoms: _76  and  _79
REMARK   34  A    between atoms: _79  and  _80
REMARK   35  A    between atoms: _83  and  _85
REMARK   36  A    between atoms: _85  and  _86
REMARK   37  A    between atoms: _85  and  _88
REMARK   38  A    between atoms: _88  and  _89
REMARK   39  A    between atoms: _92  and  _94
REMARK   40  A    between atoms: _94  and  _95
REMARK   41  A    between atoms: _94  and  _97
REMARK   42  A    between atoms: _100  and  _102
REMARK   43  A    between atoms: _102  and  _103
REMARK   44  A    between atoms: _102  and  _105
REMARK   45  A    between atoms: _105  and  _106
REMARK   46  A    between atoms: _106  and  _107
REMARK   47  A    between atoms: _107  and  _108
REMARK   48  A    between atoms: _108  and  _109
REMARK   49  A    between atoms: _113  and  _115
REMARK   50  A    between atoms: _115  and  _116
REMARK   51  A    between atoms: _115  and  _118
REMARK   52  A    between atoms: _118  and  _119
REMARK   53  A    between atoms: _119  and  _120
REMARK   54  A    between atoms: _122  and  _124
REMARK   55  A    between atoms: _124  and  _125
REMARK   56  A    between atoms: _124  and  _127
REMARK   57  A    between atoms: _127  and  _128
REMARK   58  A    between atoms: _131  and  _133
REMARK   59  A    between atoms: _133  and  _134
REMARK   60  A    between atoms: _136  and  _138
REMARK   61  A    between atoms: _138  and  _139
REMARK   62  A    between atoms: _141  and  _143
REMARK   63  A    between atoms: _143  and  _144
REMARK   64  A    between atoms: _143  and  _146
REMARK   65  A    between atoms: _146  and  _147
REMARK   66  A    between atoms: _150  and  _152
REMARK   67  A    between atoms: _152  and  _153
REMARK   68  A    between atoms: _155  and  _157
REMARK   69  A    between atoms: _157  and  _158
REMARK   70  A    between atoms: _160  and  _162
REMARK   71  A    between atoms: _162  and  _163
REMARK   72  A    between atoms: _162  and  _165
REMARK   73  A    between atoms: _165  and  _166
REMARK   74  A    between atoms: _172  and  _174
REMARK   75  A    between atoms: _174  and  _175
REMARK   76  A    between atoms: _174  and  _177
REMARK   77  A    between atoms: _177  and  _178
REMARK   78  A    between atoms: _181  and  _183
REMARK   79  A    between atoms: _183  and  _184
REMARK   80  A    between atoms: _183  and  _186
REMARK   81  A    between atoms: _189  and  _191
REMARK   82  A    between atoms: _191  and  _192
REMARK   83  A    between atoms: _191  and  _194
REMARK   84  A    between atoms: _194  and  _195
REMARK   85  A    between atoms: _199  and  _200
REMARK   86  A    between atoms: _205  and  _207
REMARK   87  A    between atoms: _207  and  _208
REMARK   88  A    between atoms: _207  and  _210
REMARK   89  A    between atoms: _210  and  _211
REMARK   90  A    between atoms: _217  and  _218
REMARK   91  A    between atoms: _223  and  _225
REMARK   92  A    between atoms: _225  and  _226
REMARK   93  A    between atoms: _225  and  _228
REMARK   94  A    between atoms: _231  and  _233
REMARK   95  A    between atoms: _233  and  _234
REMARK   96  A    between atoms: _233  and  _236
REMARK   97  A    between atoms: _236  and  _237
REMARK   98  A    between atoms: _242  and  _244
REMARK   99  A    between atoms: _244  and  _245
REMARK  100  A    between atoms: _244  and  _247
REMARK  101  A    between atoms: _247  and  _248
REMARK  102  A    between atoms: _251  and  _253
REMARK  103  A    between atoms: _253  and  _254
REMARK  104  A    between atoms: _253  and  _256
REMARK  105  A    between atoms: _256  and  _257
REMARK  106  A    between atoms: _260  and  _262
REMARK  107  A    between atoms: _262  and  _263
REMARK  108  A    between atoms: _265  and  _267
REMARK  109  A    between atoms: _267  and  _268
REMARK  110  A    between atoms: _267  and  _270
REMARK  111  A    between atoms: _270  and  _271
REMARK  112  A    between atoms: _271  and  _272
REMARK  113  A    between atoms: _272  and  _273
REMARK  114  A    between atoms: _282  and  _284
REMARK  115  A    between atoms: _284  and  _285
REMARK  116  A    between atoms: _284  and  _287
REMARK  117  A    between atoms: _287  and  _288
REMARK  118  A    between atoms: _293  and  _295
REMARK  119  A    between atoms: _295  and  _296
REMARK  120  A    between atoms: _295  and  _298
REMARK  121  A    between atoms: _298  and  _299
REMARK  122  A    between atoms: _299  and  _300
REMARK  123  A    between atoms: _300  and  _301
REMARK  124  A    between atoms: _310  and  _312
REMARK  125  A    between atoms: _312  and  _313
REMARK  126  A    between atoms: _312  and  _315
REMARK  127  A    between atoms: _315  and  _316
REMARK  128  A    between atoms: _319  and  _321
REMARK  129  A    between atoms: _321  and  _322
REMARK  130  A    between atoms: _321  and  _324
REMARK  131  A    between atoms: _324  and  _325
REMARK  132  A    between atoms: _328  and  _330
REMARK  133  A    between atoms: _330  and  _331
REMARK  134  A    between atoms: _330  and  _333
REMARK  135  A    between atoms: _333  and  _334
REMARK  136  A    between atoms: _337  and  _339
REMARK  137  A    between atoms: _339  and  _340
REMARK  138  A    between atoms: _339  and  _342
REMARK  139  A    between atoms: _342  and  _343
REMARK  140  A    between atoms: _346  and  _348
REMARK  141  A    between atoms: _348  and  _349
REMARK  142  A    between atoms: _351  and  _353
REMARK  143  A    between atoms: _353  and  _354
REMARK  144  A    between atoms: _357  and  _359
REMARK  145  A    between atoms: _359  and  _360
REMARK  146  A    between atoms: _359  and  _362
REMARK  147  A    between atoms: _362  and  _363
REMARK  148  A    between atoms: _366  and  _368
REMARK  149  A    between atoms: _368  and  _369
REMARK  150  A    between atoms: _368  and  _371
REMARK  151  A    between atoms: _371  and  _372
REMARK  152  A    between atoms: _375  and  _377
REMARK  153  A    between atoms: _377  and  _378
REMARK  154  A    between atoms: _377  and  _380
REMARK  155  A    between atoms: _380  and  _381
REMARK  156  A    between atoms: _384  and  _386
REMARK  157  A    between atoms: _386  and  _387
REMARK  158  A    between atoms: _386  and  _389
REMARK  159  A    between atoms: _392  and  _394
REMARK  160  A    between atoms: _394  and  _395
REMARK  161  A    between atoms: _394  and  _397
REMARK  162  A    between atoms: _397  and  _398
REMARK  163  A    between atoms: _401  and  _403
REMARK  164  A    between atoms: _403  and  _404
REMARK  165  A    between atoms: _403  and  _406
REMARK  166  A    between atoms: _406  and  _407
REMARK  167  A    between atoms: _407  and  _408
REMARK  168  A    between atoms: _410  and  _412
REMARK  169  A    between atoms: _412  and  _413
REMARK  170  A    between atoms: _412  and  _415
REMARK  171  A    between atoms: _415  and  _416
REMARK  172  A    between atoms: _419  and  _421
REMARK  173  A    between atoms: _421  and  _422
REMARK  174  A    between atoms: _424  and  _426
REMARK  175  A    between atoms: _426  and  _427
REMARK  176  A    between atoms: _429  and  _431
REMARK  177  A    between atoms: _431  and  _432
REMARK  178  A    between atoms: _431  and  _434
REMARK  179  A    between atoms: _434  and  _435
REMARK  180  A    between atoms: _438  and  _440
REMARK  181  A    between atoms: _440  and  _441
REMARK  182  A    between atoms: _443  and  _445
REMARK  183  A    between atoms: _445  and  _446
REMARK  184  A    between atoms: _448  and  _450
REMARK  185  A    between atoms: _450  and  _451
REMARK  186  A    between atoms: _450  and  _453
REMARK  187  A    between atoms: _453  and  _454
REMARK  188  A    between atoms: _460  and  _462
REMARK  189  A    between atoms: _462  and  _463
REMARK  190  A    between atoms: _462  and  _465
REMARK  191  A    between atoms: _465  and  _466
REMARK  192  A    between atoms: _469  and  _471
REMARK  193  A    between atoms: _471  and  _472
REMARK  194  A    between atoms: _471  and  _474
REMARK  195  A    between atoms: _477  and  _479
REMARK  196  A    between atoms: _479  and  _480
REMARK  197  A    between atoms: _479  and  _482
REMARK  198  A    between atoms: _482  and  _483
REMARK  199  A    between atoms: _487  and  _488
REMARK  200  A    between atoms: _493  and  _495
REMARK  201  A    between atoms: _495  and  _496
REMARK  202  A    between atoms: _495  and  _498
REMARK  203  A    between atoms: _498  and  _499
REMARK  204  A    between atoms: _505  and  _506
REMARK  205  A    between atoms: _511  and  _513
REMARK  206  A    between atoms: _513  and  _514
REMARK  207  A    between atoms: _513  and  _516
REMARK  208  A    between atoms: _519  and  _521
REMARK  209  A    between atoms: _521  and  _522
REMARK  210  A    between atoms: _521  and  _524
REMARK  211  A    between atoms: _524  and  _525
REMARK  212  A    between atoms: _530  and  _532
REMARK  213  A    between atoms: _532  and  _533
REMARK  214  A    between atoms: _532  and  _535
REMARK  215  A    between atoms: _535  and  _536
REMARK  216  A    between atoms: _539  and  _541
REMARK  217  A    between atoms: _541  and  _542
REMARK  218  A    between atoms: _541  and  _544
REMARK  219  A    between atoms: _544  and  _545
REMARK  220  A    between atoms: _548  and  _550
REMARK  221  A    between atoms: _550  and  _551
REMARK  222  A    between atoms: _553  and  _555
REMARK  223  A    between atoms: _555  and  _556
REMARK  224  A    between atoms: _555  and  _558
REMARK  225  A    between atoms: _558  and  _559
REMARK  226  A    between atoms: _559  and  _560
REMARK  227  A    between atoms: _560  and  _561
REMARK  228  A    between atoms: _570  and  _572
REMARK  229  A    between atoms: _572  and  _573
REMARK  230  A    between atoms: _572  and  _575
REMARK  231  A    between atoms: _575  and  _576
REMARK                            x       y       z     vdW  Elec       q    Type
REMARK                         _______ _______ _______ _____ _____    ______ ____
ROOT
ATOM      1  O   HOH     1      23.111   4.031  24.915  0.00  0.00    +0.000 OA
ENDROOT
TORSDOF 0
REMARK  Name = ../refined-set-2016/2fgv/2fgv_pocket.pdb
REMARK  231 active torsions:
REMARK  status: ('A' for Active; 'I' for Inactive)
REMARK    1  A    between atoms: _1  and  _3
REMARK    2  A    between atoms: _3  and  _4
REMARK    3  A    between atoms: _3  and  _6
REMARK    4  A    between atoms: _6  and  _7
REMARK    5  A    between atoms: _7  and  _8
REMARK    6  A    between atoms: _8  and  _9
REMARK    7  A    between atoms: _18  and  _20
REMARK    8  A    between atoms: _20  and  _21
REMARK    9  A    between atoms: _20  and  _23
REMARK   10  A    between atoms: _23  and  _24
REMARK   11  A    between atoms: _27  and  _29
REMARK   12  A    between atoms: _29  and  _30
REMARK   13  A    between atoms: _29  and  _32
REMARK   14  A    between atoms: _32  and  _33
REMARK   15  A    between atoms: _36  and  _38
REMARK   16  A    between atoms: _38  and  _39
REMARK   17  A    between atoms: _38  and  _41
REMARK   18  A    between atoms: _41  and  _42
REMARK   19  A    between atoms: _45  and  _47
REMARK   20  A    between atoms: _47  and  _48
REMARK   21  A    between atoms: _47  and  _50
REMARK   22  A    between atoms: _50  and  _51
REMARK   23  A    between atoms: _54  and  _56
REMARK   24  A    between atoms: _56  and  _57
REMARK   25  A    between atoms: _59  and  _61
REMARK   26  A    between atoms: _61  and  _62
REMARK   27  A    between atoms: _65  and  _67
REMARK   28  A    between atoms: _67  and  _68
REMARK   29  A    between atoms: _67  and  _70
REMARK   30  A    between atoms: _70  and  _71
REMARK   31  A    between atoms: _74  and  _76
REMARK   32  A    between atoms: _76  and  _77
REMARK   33  A    between atoms: _76  and  _79
REMARK   34  A    between atoms: _79  and  _80
REMARK   35  A    between atoms: _83  and  _85
REMARK   36  A    between atoms: _85  and  _86
REMARK   37  A    between atoms: _85  and  _88
REMARK   38  A    between atoms: _88  and  _89
REMARK   39  A    between atoms: _92  and  _94
REMARK   40  A    between atoms: _94  and  _95
REMARK   41  A    between atoms: _94  and  _97
REMARK   42  A    between atoms: _100  and  _102
REMARK   43  A    between atoms: _102  and  _103
REMARK   44  A    between atoms: _102  and  _105
REMARK   45  A    between atoms: _105  and  _106
REMARK   46  A    between atoms: _106  and  _107
REMARK   47  A    between atoms: _107  and  _108
REMARK   48  A    between atoms: _108  and  _109
REMARK   49  A    between atoms: _113  and  _115
REMARK   50  A    between atoms: _115  and  _116
REMARK   51  A    between atoms: _115  and  _118
REMARK   52  A    between atoms: _118  and  _119
REMARK   53  A    between atoms: _119  and  _120
REMARK   54  A    between atoms: _122  and  _124
REMARK   55  A    between atoms: _124  and  _125
REMARK   56  A    between atoms: _124  and  _127
REMARK   57  A    between atoms: _127  and  _128
REMARK   58  A    between atoms: _131  and  _133
REMARK   59  A    between atoms: _133  and  _134
REMARK   60  A    between atoms: _136  and  _138
REMARK   61  A    between atoms: _138  and  _139
REMARK   62  A    between atoms: _141  and  _143
REMARK   63  A    between atoms: _143  and  _144
REMARK   64  A    between atoms: _143  and  _146
REMARK   65  A    between atoms: _146  and  _147
REMARK   66  A    between atoms: _150  and  _152
REMARK   67  A    between atoms: _152  and  _153
REMARK   68  A    between atoms: _155  and  _157
REMARK   69  A    between atoms: _157  and  _158
REMARK   70  A    between atoms: _160  and  _162
REMARK   71  A    between atoms: _162  and  _163
REMARK   72  A    between atoms: _162  and  _165
REMARK   73  A    between atoms: _165  and  _166
REMARK   74  A    between atoms: _172  and  _174
REMARK   75  A    between atoms: _174  and  _175
REMARK   76  A    between atoms: _174  and  _177
REMARK   77  A    between atoms: _177  and  _178
REMARK   78  A    between atoms: _181  and  _183
REMARK   79  A    between atoms: _183  and  _184
REMARK   80  A    between atoms: _183  and  _186
REMARK   81  A    between atoms: _189  and  _191
REMARK   82  A    between atoms: _191  and  _192
REMARK   83  A    between atoms: _191  and  _194
REMARK   84  A    between atoms: _194  and  _195
REMARK   85  A    between atoms: _199  and  _200
REMARK   86  A    between atoms: _205  and  _207
REMARK   87  A    between atoms: _207  and  _208
REMARK   88  A    between atoms: _207  and  _210
REMARK   89  A    between atoms: _210  and  _211
REMARK   90  A    between atoms: _217  and  _218
REMARK   91  A    between atoms: _223  and  _225
REMARK   92  A    between atoms: _225  and  _226
REMARK   93  A    between atoms: _225  and  _228
REMARK   94  A    between atoms: _231  and  _233
REMARK   95  A    between atoms: _233  and  _234
REMARK   96  A    between atoms: _233  and  _236
REMARK   97  A    between atoms: _236  and  _237
REMARK   98  A    between atoms: _242  and  _244
REMARK   99  A    between atoms: _244  and  _245
REMARK  100  A    between atoms: _244  and  _247
REMARK  101  A    between atoms: _247  and  _248
REMARK  102  A    between atoms: _251  and  _253
REMARK  103  A    between atoms: _253  and  _254
REMARK  104  A    between atoms: _253  and  _256
REMARK  105  A    between atoms: _256  and  _257
REMARK  106  A    between atoms: _260  and  _262
REMARK  107  A    between atoms: _262  and  _263
REMARK  108  A    between atoms: _265  and  _267
REMARK  109  A    between atoms: _267  and  _268
REMARK  110  A    between atoms: _267  and  _270
REMARK  111  A    between atoms: _270  and  _271
REMARK  112  A    between atoms: _271  and  _272
REMARK  113  A    between atoms: _272  and  _273
REMARK  114  A    between atoms: _282  and  _284
REMARK  115  A    between atoms: _284  and  _285
REMARK  116  A    between atoms: _284  and  _287
REMARK  117  A    between atoms: _287  and  _288
REMARK  118  A    between atoms: _293  and  _295
REMARK  119  A    between atoms: _295  and  _296
REMARK  120  A    between atoms: _295  and  _298
REMARK  121  A    between atoms: _298  and  _299
REMARK  122  A    between atoms: _299  and  _300
REMARK  123  A    between atoms: _300  and  _301
REMARK  124  A    between atoms: _310  and  _312
REMARK  125  A    between atoms: _312  and  _313
REMARK  126  A    between atoms: _312  and  _315
REMARK  127  A    between atoms: _315  and  _316
REMARK  128  A    between atoms: _319  and  _321
REMARK  129  A    between atoms: _321  and  _322
REMARK  130  A    between atoms: _321  and  _324
REMARK  131  A    between atoms: _324  and  _325
REMARK  132  A    between atoms: _328  and  _330
REMARK  133  A    between atoms: _330  and  _331
REMARK  134  A    between atoms: _330  and  _333
REMARK  135  A    between atoms: _333  and  _334
REMARK  136  A    between atoms: _337  and  _339
REMARK  137  A    between atoms: _339  and  _340
REMARK  138  A    between atoms: _339  and  _342
REMARK  139  A    between atoms: _342  and  _343
REMARK  140  A    between atoms: _346  and  _348
REMARK  141  A    between atoms: _348  and  _349
REMARK  142  A    between atoms: _351  and  _353
REMARK  143  A    between atoms: _353  and  _354
REMARK  144  A    between atoms: _357  and  _359
REMARK  145  A    between atoms: _359  and  _360
REMARK  146  A    between atoms: _359  and  _362
REMARK  147  A    between atoms: _362  and  _363
REMARK  148  A    between atoms: _366  and  _368
REMARK  149  A    between atoms: _368  and  _369
REMARK  150  A    between atoms: _368  and  _371
REMARK  151  A    between atoms: _371  and  _372
REMARK  152  A    between atoms: _375  and  _377
REMARK  153  A    between atoms: _377  and  _378
REMARK  154  A    between atoms: _377  and  _380
REMARK  155  A    between atoms: _380  and  _381
REMARK  156  A    between atoms: _384  and  _386
REMARK  157  A    between atoms: _386  and  _387
REMARK  158  A    between atoms: _386  and  _389
REMARK  159  A    between atoms: _392  and  _394
REMARK  160  A    between atoms: _394  and  _395
REMARK  161  A    between atoms: _394  and  _397
REMARK  162  A    between atoms: _397  and  _398
REMARK  163  A    between atoms: _401  and  _403
REMARK  164  A    between atoms: _403  and  _404
REMARK  165  A    between atoms: _403  and  _406
REMARK  166  A    between atoms: _406  and  _407
REMARK  167  A    between atoms: _407  and  _408
REMARK  168  A    between atoms: _410  and  _412
REMARK  169  A    between atoms: _412  and  _413
REMARK  170  A    between atoms: _412  and  _415
REMARK  171  A    between atoms: _415  and  _416
REMARK  172  A    between atoms: _419  and  _421
REMARK  173  A    between atoms: _421  and  _422
REMARK  174  A    between atoms: _424  and  _426
REMARK  175  A    between atoms: _426  and  _427
REMARK  176  A    between atoms: _429  and  _431
REMARK  177  A    between atoms: _431  and  _432
REMARK  178  A    between atoms: _431  and  _434
REMARK  179  A    between atoms: _434  and  _435
REMARK  180  A    between atoms: _438  and  _440
REMARK  181  A    between atoms: _440  and  _441
REMARK  182  A    between atoms: _443  and  _445
REMARK  183  A    between atoms: _445  and  _446
REMARK  184  A    between atoms: _448  and  _450
REMARK  185  A    between atoms: _450  and  _451
REMARK  186  A    between atoms: _450  and  _453
REMARK  187  A    between atoms: _453  and  _454
REMARK  188  A    between atoms: _460  and  _462
REMARK  189  A    between atoms: _462  and  _463
REMARK  190  A    between atoms: _462  and  _465
REMARK  191  A    between atoms: _465  and  _466
REMARK  192  A    between atoms: _469  and  _471
REMARK  193  A    between atoms: _471  and  _472
REMARK  194  A    between atoms: _471  and  _474
REMARK  195  A    between atoms: _477  and  _479
REMARK  196  A    between atoms: _479  and  _480
REMARK  197  A    between atoms: _479  and  _482
REMARK  198  A    between atoms: _482  and  _483
REMARK  199  A    between atoms: _487  and  _488
REMARK  200  A    between atoms: _493  and  _495
REMARK  201  A    between atoms: _495  and  _496
REMARK  202  A    between atoms: _495  and  _498
REMARK  203  A    between atoms: _498  and  _499
REMARK  204  A    between atoms: _505  and  _506
REMARK  205  A    between atoms: _511  and  _513
REMARK  206  A    between atoms: _513  and  _514
REMARK  207  A    between atoms: _513  and  _516
REMARK  208  A    between atoms: _519  and  _521
REMARK  209  A    between atoms: _521  and  _522
REMARK  210  A    between atoms: _521  and  _524
REMARK  211  A    between atoms: _524  and  _525
REMARK  212  A    between atoms: _530  and  _532
REMARK  213  A    between atoms: _532  and  _533
REMARK  214  A    between atoms: _532  and  _535
REMARK  215  A    between atoms: _535  and  _536
REMARK  216  A    between atoms: _539  and  _541
REMARK  217  A    between atoms: _541  and  _542
REMARK  218  A    between atoms: _541  and  _544
REMARK  219  A    between atoms: _544  and  _545
REMARK  220  A    between atoms: _548  and  _550
REMARK  221  A    between atoms: _550  and  _551
REMARK  222  A    between atoms: _553  and  _555
REMARK  223  A    between atoms: _555  and  _556
REMARK  224  A    between atoms: _555  and  _558
REMARK  225  A    between atoms: _558  and  _559
REMARK  226  A    between atoms: _559  and  _560
REMARK  227  A    between atoms: _560  and  _561
REMARK  228  A    between atoms: _570  and  _572
REMARK  229  A    between atoms: _572  and  _573
REMARK  230  A    between atoms: _572  and  _575
REMARK  231  A    between atoms: _575  and  _576
REMARK                            x       y       z     vdW  Elec       q    Type
REMARK                         _______ _______ _______ _____ _____    ______ ____
ROOT
ATOM      1  O   HOH     1      25.733  -9.048   8.088  0.00  0.00    +0.000 OA
ENDROOT
TORSDOF 0
REMARK  Name = ../refined-set-2016/2fgv/2fgv_pocket.pdb
REMARK  231 active torsions:
REMARK  status: ('A' for Active; 'I' for Inactive)
REMARK    1  A    between atoms: _1  and  _3
REMARK    2  A    between atoms: _3  and  _4
REMARK    3  A    between atoms: _3  and  _6
REMARK    4  A    between atoms: _6  and  _7
REMARK    5  A    between atoms: _7  and  _8
REMARK    6  A    between atoms: _8  and  _9
REMARK    7  A    between atoms: _18  and  _20
REMARK    8  A    between atoms: _20  and  _21
REMARK    9  A    between atoms: _20  and  _23
REMARK   10  A    between atoms: _23  and  _24
REMARK   11  A    between atoms: _27  and  _29
REMARK   12  A    between atoms: _29  and  _30
REMARK   13  A    between atoms: _29  and  _32
REMARK   14  A    between atoms: _32  and  _33
REMARK   15  A    between atoms: _36  and  _38
REMARK   16  A    between atoms: _38  and  _39
REMARK   17  A    between atoms: _38  and  _41
REMARK   18  A    between atoms: _41  and  _42
REMARK   19  A    between atoms: _45  and  _47
REMARK   20  A    between atoms: _47  and  _48
REMARK   21  A    between atoms: _47  and  _50
REMARK   22  A    between atoms: _50  and  _51
REMARK   23  A    between atoms: _54  and  _56
REMARK   24  A    between atoms: _56  and  _57
REMARK   25  A    between atoms: _59  and  _61
REMARK   26  A    between atoms: _61  and  _62
REMARK   27  A    between atoms: _65  and  _67
REMARK   28  A    between atoms: _67  and  _68
REMARK   29  A    between atoms: _67  and  _70
REMARK   30  A    between atoms: _70  and  _71
REMARK   31  A    between atoms: _74  and  _76
REMARK   32  A    between atoms: _76  and  _77
REMARK   33  A    between atoms: _76  and  _79
REMARK   34  A    between atoms: _79  and  _80
REMARK   35  A    between atoms: _83  and  _85
REMARK   36  A    between atoms: _85  and  _86
REMARK   37  A    between atoms: _85  and  _88
REMARK   38  A    between atoms: _88  and  _89
REMARK   39  A    between atoms: _92  and  _94
REMARK   40  A    between atoms: _94  and  _95
REMARK   41  A    between atoms: _94  and  _97
REMARK   42  A    between atoms: _100  and  _102
REMARK   43  A    between atoms: _102  and  _103
REMARK   44  A    between atoms: _102  and  _105
REMARK   45  A    between atoms: _105  and  _106
REMARK   46  A    between atoms: _106  and  _107
REMARK   47  A    between atoms: _107  and  _108
REMARK   48  A    between atoms: _108  and  _109
REMARK   49  A    between atoms: _113  and  _115
REMARK   50  A    between atoms: _115  and  _116
REMARK   51  A    between atoms: _115  and  _118
REMARK   52  A    between atoms: _118  and  _119
REMARK   53  A    between atoms: _119  and  _120
REMARK   54  A    between atoms: _122  and  _124
REMARK   55  A    between atoms: _124  and  _125
REMARK   56  A    between atoms: _124  and  _127
REMARK   57  A    between atoms: _127  and  _128
REMARK   58  A    between atoms: _131  and  _133
REMARK   59  A    between atoms: _133  and  _134
REMARK   60  A    between atoms: _136  and  _138
REMARK   61  A    between atoms: _138  and  _139
REMARK   62  A    between atoms: _141  and  _143
REMARK   63  A    between atoms: _143  and  _144
REMARK   64  A    between atoms: _143  and  _146
REMARK   65  A    between atoms: _146  and  _147
REMARK   66  A    between atoms: _150  and  _152
REMARK   67  A    between atoms: _152  and  _153
REMARK   68  A    between atoms: _155  and  _157
REMARK   69  A    between atoms: _157  and  _158
REMARK   70  A    between atoms: _160  and  _162
REMARK   71  A    between atoms: _162  and  _163
REMARK   72  A    between atoms: _162  and  _165
REMARK   73  A    between atoms: _165  and  _166
REMARK   74  A    between atoms: _172  and  _174
REMARK   75  A    between atoms: _174  and  _175
REMARK   76  A    between atoms: _174  and  _177
REMARK   77  A    between atoms: _177  and  _178
REMARK   78  A    between atoms: _181  and  _183
REMARK   79  A    between atoms: _183  and  _184
REMARK   80  A    between atoms: _183  and  _186
REMARK   81  A    between atoms: _189  and  _191
REMARK   82  A    between atoms: _191  and  _192
REMARK   83  A    between atoms: _191  and  _194
REMARK   84  A    between atoms: _194  and  _195
REMARK   85  A    between atoms: _199  and  _200
REMARK   86  A    between atoms: _205  and  _207
REMARK   87  A    between atoms: _207  and  _208
REMARK   88  A    between atoms: _207  and  _210
REMARK   89  A    between atoms: _210  and  _211
REMARK   90  A    between atoms: _217  and  _218
REMARK   91  A    between atoms: _223  and  _225
REMARK   92  A    between atoms: _225  and  _226
REMARK   93  A    between atoms: _225  and  _228
REMARK   94  A    between atoms: _231  and  _233
REMARK   95  A    between atoms: _233  and  _234
REMARK   96  A    between atoms: _233  and  _236
REMARK   97  A    between atoms: _236  and  _237
REMARK   98  A    between atoms: _242  and  _244
REMARK   99  A    between atoms: _244  and  _245
REMARK  100  A    between atoms: _244  and  _247
REMARK  101  A    between atoms: _247  and  _248
REMARK  102  A    between atoms: _251  and  _253
REMARK  103  A    between atoms: _253  and  _254
REMARK  104  A    between atoms: _253  and  _256
REMARK  105  A    between atoms: _256  and  _257
REMARK  106  A    between atoms: _260  and  _262
REMARK  107  A    between atoms: _262  and  _263
REMARK  108  A    between atoms: _265  and  _267
REMARK  109  A    between atoms: _267  and  _268
REMARK  110  A    between atoms: _267  and  _270
REMARK  111  A    between atoms: _270  and  _271
REMARK  112  A    between atoms: _271  and  _272
REMARK  113  A    between atoms: _272  and  _273
REMARK  114  A    between atoms: _282  and  _284
REMARK  115  A    between atoms: _284  and  _285
REMARK  116  A    between atoms: _284  and  _287
REMARK  117  A    between atoms: _287  and  _288
REMARK  118  A    between atoms: _293  and  _295
REMARK  119  A    between atoms: _295  and  _296
REMARK  120  A    between atoms: _295  and  _298
REMARK  121  A    between atoms: _298  and  _299
REMARK  122  A    between atoms: _299  and  _300
REMARK  123  A    between atoms: _300  and  _301
REMARK  124  A    between atoms: _310  and  _312
REMARK  125  A    between atoms: _312  and  _313
REMARK  126  A    between atoms: _312  and  _315
REMARK  127  A    between atoms: _315  and  _316
REMARK  128  A    between atoms: _319  and  _321
REMARK  129  A    between atoms: _321  and  _322
REMARK  130  A    between atoms: _321  and  _324
REMARK  131  A    between atoms: _324  and  _325
REMARK  132  A    between atoms: _328  and  _330
REMARK  133  A    between atoms: _330  and  _331
REMARK  134  A    between atoms: _330  and  _333
REMARK  135  A    between atoms: _333  and  _334
REMARK  136  A    between atoms: _337  and  _339
REMARK  137  A    between atoms: _339  and  _340
REMARK  138  A    between atoms: _339  and  _342
REMARK  139  A    between atoms: _342  and  _343
REMARK  140  A    between atoms: _346  and  _348
REMARK  141  A    between atoms: _348  and  _349
REMARK  142  A    between atoms: _351  and  _353
REMARK  143  A    between atoms: _353  and  _354
REMARK  144  A    between atoms: _357  and  _359
REMARK  145  A    between atoms: _359  and  _360
REMARK  146  A    between atoms: _359  and  _362
REMARK  147  A    between atoms: _362  and  _363
REMARK  148  A    between atoms: _366  and  _368
REMARK  149  A    between atoms: _368  and  _369
REMARK  150  A    between atoms: _368  and  _371
REMARK  151  A    between atoms: _371  and  _372
REMARK  152  A    between atoms: _375  and  _377
REMARK  153  A    between atoms: _377  and  _378
REMARK  154  A    between atoms: _377  and  _380
REMARK  155  A    between atoms: _380  and  _381
REMARK  156  A    between atoms: _384  and  _386
REMARK  157  A    between atoms: _386  and  _387
REMARK  158  A    between atoms: _386  and  _389
REMARK  159  A    between atoms: _392  and  _394
REMARK  160  A    between atoms: _394  and  _395
REMARK  161  A    between atoms: _394  and  _397
REMARK  162  A    between atoms: _397  and  _398
REMARK  163  A    between atoms: _401  and  _403
REMARK  164  A    between atoms: _403  and  _404
REMARK  165  A    between atoms: _403  and  _406
REMARK  166  A    between atoms: _406  and  _407
REMARK  167  A    between atoms: _407  and  _408
REMARK  168  A    between atoms: _410  and  _412
REMARK  169  A    between atoms: _412  and  _413
REMARK  170  A    between atoms: _412  and  _415
REMARK  171  A    between atoms: _415  and  _416
REMARK  172  A    between atoms: _419  and  _421
REMARK  173  A    between atoms: _421  and  _422
REMARK  174  A    between atoms: _424  and  _426
REMARK  175  A    between atoms: _426  and  _427
REMARK  176  A    between atoms: _429  and  _431
REMARK  177  A    between atoms: _431  and  _432
REMARK  178  A    between atoms: _431  and  _434
REMARK  179  A    between atoms: _434  and  _435
REMARK  180  A    between atoms: _438  and  _440
REMARK  181  A    between atoms: _440  and  _441
REMARK  182  A    between atoms: _443  and  _445
REMARK  183  A    between atoms: _445  and  _446
REMARK  184  A    between atoms: _448  and  _450
REMARK  185  A    between atoms: _450  and  _451
REMARK  186  A    between atoms: _450  and  _453
REMARK  187  A    between atoms: _453  and  _454
REMARK  188  A    between atoms: _460  and  _462
REMARK  189  A    between atoms: _462  and  _463
REMARK  190  A    between atoms: _462  and  _465
REMARK  191  A    between atoms: _465  and  _466
REMARK  192  A    between atoms: _469  and  _471
REMARK  193  A    between atoms: _471  and  _472
REMARK  194  A    between atoms: _471  and  _474
REMARK  195  A    between atoms: _477  and  _479
REMARK  196  A    between atoms: _479  and  _480
REMARK  197  A    between atoms: _479  and  _482
REMARK  198  A    between atoms: _482  and  _483
REMARK  199  A    between atoms: _487  and  _488
REMARK  200  A    between atoms: _493  and  _495
REMARK  201  A    between atoms: _495  and  _496
REMARK  202  A    between atoms: _495  and  _498
REMARK  203  A    between atoms: _498  and  _499
REMARK  204  A    between atoms: _505  and  _506
REMARK  205  A    between atoms: _511  and  _513
REMARK  206  A    between atoms: _513  and  _514
REMARK  207  A    between atoms: _513  and  _516
REMARK  208  A    between atoms: _519  and  _521
REMARK  209  A    between atoms: _521  and  _522
REMARK  210  A    between atoms: _521  and  _524
REMARK  211  A    between atoms: _524  and  _525
REMARK  212  A    between atoms: _530  and  _532
REMARK  213  A    between atoms: _532  and  _533
REMARK  214  A    between atoms: _532  and  _535
REMARK  215  A    between atoms: _535  and  _536
REMARK  216  A    between atoms: _539  and  _541
REMARK  217  A    between atoms: _541  and  _542
REMARK  218  A    between atoms: _541  and  _544
REMARK  219  A    between atoms: _544  and  _545
REMARK  220  A    between atoms: _548  and  _550
REMARK  221  A    between atoms: _550  and  _551
REMARK  222  A    between atoms: _553  and  _555
REMARK  223  A    between atoms: _555  and  _556
REMARK  224  A    between atoms: _555  and  _558
REMARK  225  A    between atoms: _558  and  _559
REMARK  226  A    between atoms: _559  and  _560
REMARK  227  A    between atoms: _560  and  _561
REMARK  228  A    between atoms: _570  and  _572
REMARK  229  A    between atoms: _572  and  _573
REMARK  230  A    between atoms: _572  and  _575
REMARK  231  A    between atoms: _575  and  _576
REMARK                            x       y       z     vdW  Elec       q    Type
REMARK                         _______ _______ _______ _____ _____    ______ ____
ROOT
ATOM      1  O   HOH     1      24.831 -10.046   5.589  0.00  0.00    +0.000 OA
ENDROOT
TORSDOF 0
REMARK  Name = ../refined-set-2016/2fgv/2fgv_pocket.pdb
REMARK  231 active torsions:
REMARK  status: ('A' for Active; 'I' for Inactive)
REMARK    1  A    between atoms: _1  and  _3
REMARK    2  A    between atoms: _3  and  _4
REMARK    3  A    between atoms: _3  and  _6
REMARK    4  A    between atoms: _6  and  _7
REMARK    5  A    between atoms: _7  and  _8
REMARK    6  A    between atoms: _8  and  _9
REMARK    7  A    between atoms: _18  and  _20
REMARK    8  A    between atoms: _20  and  _21
REMARK    9  A    between atoms: _20  and  _23
REMARK   10  A    between atoms: _23  and  _24
REMARK   11  A    between atoms: _27  and  _29
REMARK   12  A    between atoms: _29  and  _30
REMARK   13  A    between atoms: _29  and  _32
REMARK   14  A    between atoms: _32  and  _33
REMARK   15  A    between atoms: _36  and  _38
REMARK   16  A    between atoms: _38  and  _39
REMARK   17  A    between atoms: _38  and  _41
REMARK   18  A    between atoms: _41  and  _42
REMARK   19  A    between atoms: _45  and  _47
REMARK   20  A    between atoms: _47  and  _48
REMARK   21  A    between atoms: _47  and  _50
REMARK   22  A    between atoms: _50  and  _51
REMARK   23  A    between atoms: _54  and  _56
REMARK   24  A    between atoms: _56  and  _57
REMARK   25  A    between atoms: _59  and  _61
REMARK   26  A    between atoms: _61  and  _62
REMARK   27  A    between atoms: _65  and  _67
REMARK   28  A    between atoms: _67  and  _68
REMARK   29  A    between atoms: _67  and  _70
REMARK   30  A    between atoms: _70  and  _71
REMARK   31  A    between atoms: _74  and  _76
REMARK   32  A    between atoms: _76  and  _77
REMARK   33  A    between atoms: _76  and  _79
REMARK   34  A    between atoms: _79  and  _80
REMARK   35  A    between atoms: _83  and  _85
REMARK   36  A    between atoms: _85  and  _86
REMARK   37  A    between atoms: _85  and  _88
REMARK   38  A    between atoms: _88  and  _89
REMARK   39  A    between atoms: _92  and  _94
REMARK   40  A    between atoms: _94  and  _95
REMARK   41  A    between atoms: _94  and  _97
REMARK   42  A    between atoms: _100  and  _102
REMARK   43  A    between atoms: _102  and  _103
REMARK   44  A    between atoms: _102  and  _105
REMARK   45  A    between atoms: _105  and  _106
REMARK   46  A    between atoms: _106  and  _107
REMARK   47  A    between atoms: _107  and  _108
REMARK   48  A    between atoms: _108  and  _109
REMARK   49  A    between atoms: _113  and  _115
REMARK   50  A    between atoms: _115  and  _116
REMARK   51  A    between atoms: _115  and  _118
REMARK   52  A    between atoms: _118  and  _119
REMARK   53  A    between atoms: _119  and  _120
REMARK   54  A    between atoms: _122  and  _124
REMARK   55  A    between atoms: _124  and  _125
REMARK   56  A    between atoms: _124  and  _127
REMARK   57  A    between atoms: _127  and  _128
REMARK   58  A    between atoms: _131  and  _133
REMARK   59  A    between atoms: _133  and  _134
REMARK   60  A    between atoms: _136  and  _138
REMARK   61  A    between atoms: _138  and  _139
REMARK   62  A    between atoms: _141  and  _143
REMARK   63  A    between atoms: _143  and  _144
REMARK   64  A    between atoms: _143  and  _146
REMARK   65  A    between atoms: _146  and  _147
REMARK   66  A    between atoms: _150  and  _152
REMARK   67  A    between atoms: _152  and  _153
REMARK   68  A    between atoms: _155  and  _157
REMARK   69  A    between atoms: _157  and  _158
REMARK   70  A    between atoms: _160  and  _162
REMARK   71  A    between atoms: _162  and  _163
REMARK   72  A    between atoms: _162  and  _165
REMARK   73  A    between atoms: _165  and  _166
REMARK   74  A    between atoms: _172  and  _174
REMARK   75  A    between atoms: _174  and  _175
REMARK   76  A    between atoms: _174  and  _177
REMARK   77  A    between atoms: _177  and  _178
REMARK   78  A    between atoms: _181  and  _183
REMARK   79  A    between atoms: _183  and  _184
REMARK   80  A    between atoms: _183  and  _186
REMARK   81  A    between atoms: _189  and  _191
REMARK   82  A    between atoms: _191  and  _192
REMARK   83  A    between atoms: _191  and  _194
REMARK   84  A    between atoms: _194  and  _195
REMARK   85  A    between atoms: _199  and  _200
REMARK   86  A    between atoms: _205  and  _207
REMARK   87  A    between atoms: _207  and  _208
REMARK   88  A    between atoms: _207  and  _210
REMARK   89  A    between atoms: _210  and  _211
REMARK   90  A    between atoms: _217  and  _218
REMARK   91  A    between atoms: _223  and  _225
REMARK   92  A    between atoms: _225  and  _226
REMARK   93  A    between atoms: _225  and  _228
REMARK   94  A    between atoms: _231  and  _233
REMARK   95  A    between atoms: _233  and  _234
REMARK   96  A    between atoms: _233  and  _236
REMARK   97  A    between atoms: _236  and  _237
REMARK   98  A    between atoms: _242  and  _244
REMARK   99  A    between atoms: _244  and  _245
REMARK  100  A    between atoms: _244  and  _247
REMARK  101  A    between atoms: _247  and  _248
REMARK  102  A    between atoms: _251  and  _253
REMARK  103  A    between atoms: _253  and  _254
REMARK  104  A    between atoms: _253  and  _256
REMARK  105  A    between atoms: _256  and  _257
REMARK  106  A    between atoms: _260  and  _262
REMARK  107  A    between atoms: _262  and  _263
REMARK  108  A    between atoms: _265  and  _267
REMARK  109  A    between atoms: _267  and  _268
REMARK  110  A    between atoms: _267  and  _270
REMARK  111  A    between atoms: _270  and  _271
REMARK  112  A    between atoms: _271  and  _272
REMARK  113  A    between atoms: _272  and  _273
REMARK  114  A    between atoms: _282  and  _284
REMARK  115  A    between atoms: _284  and  _285
REMARK  116  A    between atoms: _284  and  _287
REMARK  117  A    between atoms: _287  and  _288
REMARK  118  A    between atoms: _293  and  _295
REMARK  119  A    between atoms: _295  and  _296
REMARK  120  A    between atoms: _295  and  _298
REMARK  121  A    between atoms: _298  and  _299
REMARK  122  A    between atoms: _299  and  _300
REMARK  123  A    between atoms: _300  and  _301
REMARK  124  A    between atoms: _310  and  _312
REMARK  125  A    between atoms: _312  and  _313
REMARK  126  A    between atoms: _312  and  _315
REMARK  127  A    between atoms: _315  and  _316
REMARK  128  A    between atoms: _319  and  _321
REMARK  129  A    between atoms: _321  and  _322
REMARK  130  A    between atoms: _321  and  _324
REMARK  131  A    between atoms: _324  and  _325
REMARK  132  A    between atoms: _328  and  _330
REMARK  133  A    between atoms: _330  and  _331
REMARK  134  A    between atoms: _330  and  _333
REMARK  135  A    between atoms: _333  and  _334
REMARK  136  A    between atoms: _337  and  _339
REMARK  137  A    between atoms: _339  and  _340
REMARK  138  A    between atoms: _339  and  _342
REMARK  139  A    between atoms: _342  and  _343
REMARK  140  A    between atoms: _346  and  _348
REMARK  141  A    between atoms: _348  and  _349
REMARK  142  A    between atoms: _351  and  _353
REMARK  143  A    between atoms: _353  and  _354
REMARK  144  A    between atoms: _357  and  _359
REMARK  145  A    between atoms: _359  and  _360
REMARK  146  A    between atoms: _359  and  _362
REMARK  147  A    between atoms: _362  and  _363
REMARK  148  A    between atoms: _366  and  _368
REMARK  149  A    between atoms: _368  and  _369
REMARK  150  A    between atoms: _368  and  _371
REMARK  151  A    between atoms: _371  and  _372
REMARK  152  A    between atoms: _375  and  _377
REMARK  153  A    between atoms: _377  and  _378
REMARK  154  A    between atoms: _377  and  _380
REMARK  155  A    between atoms: _380  and  _381
REMARK  156  A    between atoms: _384  and  _386
REMARK  157  A    between atoms: _386  and  _387
REMARK  158  A    between atoms: _386  and  _389
REMARK  159  A    between atoms: _392  and  _394
REMARK  160  A    between atoms: _394  and  _395
REMARK  161  A    between atoms: _394  and  _397
REMARK  162  A    between atoms: _397  and  _398
REMARK  163  A    between atoms: _401  and  _403
REMARK  164  A    between atoms: _403  and  _404
REMARK  165  A    between atoms: _403  and  _406
REMARK  166  A    between atoms: _406  and  _407
REMARK  167  A    between atoms: _407  and  _408
REMARK  168  A    between atoms: _410  and  _412
REMARK  169  A    between atoms: _412  and  _413
REMARK  170  A    between atoms: _412  and  _415
REMARK  171  A    between atoms: _415  and  _416
REMARK  172  A    between atoms: _419  and  _421
REMARK  173  A    between atoms: _421  and  _422
REMARK  174  A    between atoms: _424  and  _426
REMARK  175  A    between atoms: _426  and  _427
REMARK  176  A    between atoms: _429  and  _431
REMARK  177  A    between atoms: _431  and  _432
REMARK  178  A    between atoms: _431  and  _434
REMARK  179  A    between atoms: _434  and  _435
REMARK  180  A    between atoms: _438  and  _440
REMARK  181  A    between atoms: _440  and  _441
REMARK  182  A    between atoms: _443  and  _445
REMARK  183  A    between atoms: _445  and  _446
REMARK  184  A    between atoms: _448  and  _450
REMARK  185  A    between atoms: _450  and  _451
REMARK  186  A    between atoms: _450  and  _453
REMARK  187  A    between atoms: _453  and  _454
REMARK  188  A    between atoms: _460  and  _462
REMARK  189  A    between atoms: _462  and  _463
REMARK  190  A    between atoms: _462  and  _465
REMARK  191  A    between atoms: _465  and  _466
REMARK  192  A    between atoms: _469  and  _471
REMARK  193  A    between atoms: _471  and  _472
REMARK  194  A    between atoms: _471  and  _474
REMARK  195  A    between atoms: _477  and  _479
REMARK  196  A    between atoms: _479  and  _480
REMARK  197  A    between atoms: _479  and  _482
REMARK  198  A    between atoms: _482  and  _483
REMARK  199  A    between atoms: _487  and  _488
REMARK  200  A    between atoms: _493  and  _495
REMARK  201  A    between atoms: _495  and  _496
REMARK  202  A    between atoms: _495  and  _498
REMARK  203  A    between atoms: _498  and  _499
REMARK  204  A    between atoms: _505  and  _506
REMARK  205  A    between atoms: _511  and  _513
REMARK  206  A    between atoms: _513  and  _514
REMARK  207  A    between atoms: _513  and  _516
REMARK  208  A    between atoms: _519  and  _521
REMARK  209  A    between atoms: _521  and  _522
REMARK  210  A    between atoms: _521  and  _524
REMARK  211  A    between atoms: _524  and  _525
REMARK  212  A    between atoms: _530  and  _532
REMARK  213  A    between atoms: _532  and  _533
REMARK  214  A    between atoms: _532  and  _535
REMARK  215  A    between atoms: _535  and  _536
REMARK  216  A    between atoms: _539  and  _541
REMARK  217  A    between atoms: _541  and  _542
REMARK  218  A    between atoms: _541  and  _544
REMARK  219  A    between atoms: _544  and  _545
REMARK  220  A    between atoms: _548  and  _550
REMARK  221  A    between atoms: _550  and  _551
REMARK  222  A    between atoms: _553  and  _555
REMARK  223  A    between atoms: _555  and  _556
REMARK  224  A    between atoms: _555  and  _558
REMARK  225  A    between atoms: _558  and  _559
REMARK  226  A    between atoms: _559  and  _560
REMARK  227  A    between atoms: _560  and  _561
REMARK  228  A    between atoms: _570  and  _572
REMARK  229  A    between atoms: _572  and  _573
REMARK  230  A    between atoms: _572  and  _575
REMARK  231  A    between atoms: _575  and  _576
REMARK                            x       y       z     vdW  Elec       q    Type
REMARK                         _______ _______ _______ _____ _____    ______ ____
ROOT
ATOM      1  O   HOH     1      30.014   8.202  19.906  0.00  0.00    +0.000 OA
ENDROOT
TORSDOF 0
REMARK  Name = ../refined-set-2016/2fgv/2fgv_pocket.pdb
REMARK  231 active torsions:
REMARK  status: ('A' for Active; 'I' for Inactive)
REMARK    1  A    between atoms: _1  and  _3
REMARK    2  A    between atoms: _3  and  _4
REMARK    3  A    between atoms: _3  and  _6
REMARK    4  A    between atoms: _6  and  _7
REMARK    5  A    between atoms: _7  and  _8
REMARK    6  A    between atoms: _8  and  _9
REMARK    7  A    between atoms: _18  and  _20
REMARK    8  A    between atoms: _20  and  _21
REMARK    9  A    between atoms: _20  and  _23
REMARK   10  A    between atoms: _23  and  _24
REMARK   11  A    between atoms: _27  and  _29
REMARK   12  A    between atoms: _29  and  _30
REMARK   13  A    between atoms: _29  and  _32
REMARK   14  A    between atoms: _32  and  _33
REMARK   15  A    between atoms: _36  and  _38
REMARK   16  A    between atoms: _38  and  _39
REMARK   17  A    between atoms: _38  and  _41
REMARK   18  A    between atoms: _41  and  _42
REMARK   19  A    between atoms: _45  and  _47
REMARK   20  A    between atoms: _47  and  _48
REMARK   21  A    between atoms: _47  and  _50
REMARK   22  A    between atoms: _50  and  _51
REMARK   23  A    between atoms: _54  and  _56
REMARK   24  A    between atoms: _56  and  _57
REMARK   25  A    between atoms: _59  and  _61
REMARK   26  A    between atoms: _61  and  _62
REMARK   27  A    between atoms: _65  and  _67
REMARK   28  A    between atoms: _67  and  _68
REMARK   29  A    between atoms: _67  and  _70
REMARK   30  A    between atoms: _70  and  _71
REMARK   31  A    between atoms: _74  and  _76
REMARK   32  A    between atoms: _76  and  _77
REMARK   33  A    between atoms: _76  and  _79
REMARK   34  A    between atoms: _79  and  _80
REMARK   35  A    between atoms: _83  and  _85
REMARK   36  A    between atoms: _85  and  _86
REMARK   37  A    between atoms: _85  and  _88
REMARK   38  A    between atoms: _88  and  _89
REMARK   39  A    between atoms: _92  and  _94
REMARK   40  A    between atoms: _94  and  _95
REMARK   41  A    between atoms: _94  and  _97
REMARK   42  A    between atoms: _100  and  _102
REMARK   43  A    between atoms: _102  and  _103
REMARK   44  A    between atoms: _102  and  _105
REMARK   45  A    between atoms: _105  and  _106
REMARK   46  A    between atoms: _106  and  _107
REMARK   47  A    between atoms: _107  and  _108
REMARK   48  A    between atoms: _108  and  _109
REMARK   49  A    between atoms: _113  and  _115
REMARK   50  A    between atoms: _115  and  _116
REMARK   51  A    between atoms: _115  and  _118
REMARK   52  A    between atoms: _118  and  _119
REMARK   53  A    between atoms: _119  and  _120
REMARK   54  A    between atoms: _122  and  _124
REMARK   55  A    between atoms: _124  and  _125
REMARK   56  A    between atoms: _124  and  _127
REMARK   57  A    between atoms: _127  and  _128
REMARK   58  A    between atoms: _131  and  _133
REMARK   59  A    between atoms: _133  and  _134
REMARK   60  A    between atoms: _136  and  _138
REMARK   61  A    between atoms: _138  and  _139
REMARK   62  A    between atoms: _141  and  _143
REMARK   63  A    between atoms: _143  and  _144
REMARK   64  A    between atoms: _143  and  _146
REMARK   65  A    between atoms: _146  and  _147
REMARK   66  A    between atoms: _150  and  _152
REMARK   67  A    between atoms: _152  and  _153
REMARK   68  A    between atoms: _155  and  _157
REMARK   69  A    between atoms: _157  and  _158
REMARK   70  A    between atoms: _160  and  _162
REMARK   71  A    between atoms: _162  and  _163
REMARK   72  A    between atoms: _162  and  _165
REMARK   73  A    between atoms: _165  and  _166
REMARK   74  A    between atoms: _172  and  _174
REMARK   75  A    between atoms: _174  and  _175
REMARK   76  A    between atoms: _174  and  _177
REMARK   77  A    between atoms: _177  and  _178
REMARK   78  A    between atoms: _181  and  _183
REMARK   79  A    between atoms: _183  and  _184
REMARK   80  A    between atoms: _183  and  _186
REMARK   81  A    between atoms: _189  and  _191
REMARK   82  A    between atoms: _191  and  _192
REMARK   83  A    between atoms: _191  and  _194
REMARK   84  A    between atoms: _194  and  _195
REMARK   85  A    between atoms: _199  and  _200
REMARK   86  A    between atoms: _205  and  _207
REMARK   87  A    between atoms: _207  and  _208
REMARK   88  A    between atoms: _207  and  _210
REMARK   89  A    between atoms: _210  and  _211
REMARK   90  A    between atoms: _217  and  _218
REMARK   91  A    between atoms: _223  and  _225
REMARK   92  A    between atoms: _225  and  _226
REMARK   93  A    between atoms: _225  and  _228
REMARK   94  A    between atoms: _231  and  _233
REMARK   95  A    between atoms: _233  and  _234
REMARK   96  A    between atoms: _233  and  _236
REMARK   97  A    between atoms: _236  and  _237
REMARK   98  A    between atoms: _242  and  _244
REMARK   99  A    between atoms: _244  and  _245
REMARK  100  A    between atoms: _244  and  _247
REMARK  101  A    between atoms: _247  and  _248
REMARK  102  A    between atoms: _251  and  _253
REMARK  103  A    between atoms: _253  and  _254
REMARK  104  A    between atoms: _253  and  _256
REMARK  105  A    between atoms: _256  and  _257
REMARK  106  A    between atoms: _260  and  _262
REMARK  107  A    between atoms: _262  and  _263
REMARK  108  A    between atoms: _265  and  _267
REMARK  109  A    between atoms: _267  and  _268
REMARK  110  A    between atoms: _267  and  _270
REMARK  111  A    between atoms: _270  and  _271
REMARK  112  A    between atoms: _271  and  _272
REMARK  113  A    between atoms: _272  and  _273
REMARK  114  A    between atoms: _282  and  _284
REMARK  115  A    between atoms: _284  and  _285
REMARK  116  A    between atoms: _284  and  _287
REMARK  117  A    between atoms: _287  and  _288
REMARK  118  A    between atoms: _293  and  _295
REMARK  119  A    between atoms: _295  and  _296
REMARK  120  A    between atoms: _295  and  _298
REMARK  121  A    between atoms: _298  and  _299
REMARK  122  A    between atoms: _299  and  _300
REMARK  123  A    between atoms: _300  and  _301
REMARK  124  A    between atoms: _310  and  _312
REMARK  125  A    between atoms: _312  and  _313
REMARK  126  A    between atoms: _312  and  _315
REMARK  127  A    between atoms: _315  and  _316
REMARK  128  A    between atoms: _319  and  _321
REMARK  129  A    between atoms: _321  and  _322
REMARK  130  A    between atoms: _321  and  _324
REMARK  131  A    between atoms: _324  and  _325
REMARK  132  A    between atoms: _328  and  _330
REMARK  133  A    between atoms: _330  and  _331
REMARK  134  A    between atoms: _330  and  _333
REMARK  135  A    between atoms: _333  and  _334
REMARK  136  A    between atoms: _337  and  _339
REMARK  137  A    between atoms: _339  and  _340
REMARK  138  A    between atoms: _339  and  _342
REMARK  139  A    between atoms: _342  and  _343
REMARK  140  A    between atoms: _346  and  _348
REMARK  141  A    between atoms: _348  and  _349
REMARK  142  A    between atoms: _351  and  _353
REMARK  143  A    between atoms: _353  and  _354
REMARK  144  A    between atoms: _357  and  _359
REMARK  145  A    between atoms: _359  and  _360
REMARK  146  A    between atoms: _359  and  _362
REMARK  147  A    between atoms: _362  and  _363
REMARK  148  A    between atoms: _366  and  _368
REMARK  149  A    between atoms: _368  and  _369
REMARK  150  A    between atoms: _368  and  _371
REMARK  151  A    between atoms: _371  and  _372
REMARK  152  A    between atoms: _375  and  _377
REMARK  153  A    between atoms: _377  and  _378
REMARK  154  A    between atoms: _377  and  _380
REMARK  155  A    between atoms: _380  and  _381
REMARK  156  A    between atoms: _384  and  _386
REMARK  157  A    between atoms: _386  and  _387
REMARK  158  A    between atoms: _386  and  _389
REMARK  159  A    between atoms: _392  and  _394
REMARK  160  A    between atoms: _394  and  _395
REMARK  161  A    between atoms: _394  and  _397
REMARK  162  A    between atoms: _397  and  _398
REMARK  163  A    between atoms: _401  and  _403
REMARK  164  A    between atoms: _403  and  _404
REMARK  165  A    between atoms: _403  and  _406
REMARK  166  A    between atoms: _406  and  _407
REMARK  167  A    between atoms: _407  and  _408
REMARK  168  A    between atoms: _410  and  _412
REMARK  169  A    between atoms: _412  and  _413
REMARK  170  A    between atoms: _412  and  _415
REMARK  171  A    between atoms: _415  and  _416
REMARK  172  A    between atoms: _419  and  _421
REMARK  173  A    between atoms: _421  and  _422
REMARK  174  A    between atoms: _424  and  _426
REMARK  175  A    between atoms: _426  and  _427
REMARK  176  A    between atoms: _429  and  _431
REMARK  177  A    between atoms: _431  and  _432
REMARK  178  A    between atoms: _431  and  _434
REMARK  179  A    between atoms: _434  and  _435
REMARK  180  A    between atoms: _438  and  _440
REMARK  181  A    between atoms: _440  and  _441
REMARK  182  A    between atoms: _443  and  _445
REMARK  183  A    between atoms: _445  and  _446
REMARK  184  A    between atoms: _448  and  _450
REMARK  185  A    between atoms: _450  and  _451
REMARK  186  A    between atoms: _450  and  _453
REMARK  187  A    between atoms: _453  and  _454
REMARK  188  A    between atoms: _460  and  _462
REMARK  189  A    between atoms: _462  and  _463
REMARK  190  A    between atoms: _462  and  _465
REMARK  191  A    between atoms: _465  and  _466
REMARK  192  A    between atoms: _469  and  _471
REMARK  193  A    between atoms: _471  and  _472
REMARK  194  A    between atoms: _471  and  _474
REMARK  195  A    between atoms: _477  and  _479
REMARK  196  A    between atoms: _479  and  _480
REMARK  197  A    between atoms: _479  and  _482
REMARK  198  A    between atoms: _482  and  _483
REMARK  199  A    between atoms: _487  and  _488
REMARK  200  A    between atoms: _493  and  _495
REMARK  201  A    between atoms: _495  and  _496
REMARK  202  A    between atoms: _495  and  _498
REMARK  203  A    between atoms: _498  and  _499
REMARK  204  A    between atoms: _505  and  _506
REMARK  205  A    between atoms: _511  and  _513
REMARK  206  A    between atoms: _513  and  _514
REMARK  207  A    between atoms: _513  and  _516
REMARK  208  A    between atoms: _519  and  _521
REMARK  209  A    between atoms: _521  and  _522
REMARK  210  A    between atoms: _521  and  _524
REMARK  211  A    between atoms: _524  and  _525
REMARK  212  A    between atoms: _530  and  _532
REMARK  213  A    between atoms: _532  and  _533
REMARK  214  A    between atoms: _532  and  _535
REMARK  215  A    between atoms: _535  and  _536
REMARK  216  A    between atoms: _539  and  _541
REMARK  217  A    between atoms: _541  and  _542
REMARK  218  A    between atoms: _541  and  _544
REMARK  219  A    between atoms: _544  and  _545
REMARK  220  A    between atoms: _548  and  _550
REMARK  221  A    between atoms: _550  and  _551
REMARK  222  A    between atoms: _553  and  _555
REMARK  223  A    between atoms: _555  and  _556
REMARK  224  A    between atoms: _555  and  _558
REMARK  225  A    between atoms: _558  and  _559
REMARK  226  A    between atoms: _559  and  _560
REMARK  227  A    between atoms: _560  and  _561
REMARK  228  A    between atoms: _570  and  _572
REMARK  229  A    between atoms: _572  and  _573
REMARK  230  A    between atoms: _572  and  _575
REMARK  231  A    between atoms: _575  and  _576
REMARK                            x       y       z     vdW  Elec       q    Type
REMARK                         _______ _______ _______ _____ _____    ______ ____
ROOT
ATOM      1  O   HOH     1      23.440   7.690  22.493  0.00  0.00    +0.000 OA
ENDROOT
TORSDOF 0
REMARK  Name = ../refined-set-2016/2fgv/2fgv_pocket.pdb
REMARK  231 active torsions:
REMARK  status: ('A' for Active; 'I' for Inactive)
REMARK    1  A    between atoms: _1  and  _3
REMARK    2  A    between atoms: _3  and  _4
REMARK    3  A    between atoms: _3  and  _6
REMARK    4  A    between atoms: _6  and  _7
REMARK    5  A    between atoms: _7  and  _8
REMARK    6  A    between atoms: _8  and  _9
REMARK    7  A    between atoms: _18  and  _20
REMARK    8  A    between atoms: _20  and  _21
REMARK    9  A    between atoms: _20  and  _23
REMARK   10  A    between atoms: _23  and  _24
REMARK   11  A    between atoms: _27  and  _29
REMARK   12  A    between atoms: _29  and  _30
REMARK   13  A    between atoms: _29  and  _32
REMARK   14  A    between atoms: _32  and  _33
REMARK   15  A    between atoms: _36  and  _38
REMARK   16  A    between atoms: _38  and  _39
REMARK   17  A    between atoms: _38  and  _41
REMARK   18  A    between atoms: _41  and  _42
REMARK   19  A    between atoms: _45  and  _47
REMARK   20  A    between atoms: _47  and  _48
REMARK   21  A    between atoms: _47  and  _50
REMARK   22  A    between atoms: _50  and  _51
REMARK   23  A    between atoms: _54  and  _56
REMARK   24  A    between atoms: _56  and  _57
REMARK   25  A    between atoms: _59  and  _61
REMARK   26  A    between atoms: _61  and  _62
REMARK   27  A    between atoms: _65  and  _67
REMARK   28  A    between atoms: _67  and  _68
REMARK   29  A    between atoms: _67  and  _70
REMARK   30  A    between atoms: _70  and  _71
REMARK   31  A    between atoms: _74  and  _76
REMARK   32  A    between atoms: _76  and  _77
REMARK   33  A    between atoms: _76  and  _79
REMARK   34  A    between atoms: _79  and  _80
REMARK   35  A    between atoms: _83  and  _85
REMARK   36  A    between atoms: _85  and  _86
REMARK   37  A    between atoms: _85  and  _88
REMARK   38  A    between atoms: _88  and  _89
REMARK   39  A    between atoms: _92  and  _94
REMARK   40  A    between atoms: _94  and  _95
REMARK   41  A    between atoms: _94  and  _97
REMARK   42  A    between atoms: _100  and  _102
REMARK   43  A    between atoms: _102  and  _103
REMARK   44  A    between atoms: _102  and  _105
REMARK   45  A    between atoms: _105  and  _106
REMARK   46  A    between atoms: _106  and  _107
REMARK   47  A    between atoms: _107  and  _108
REMARK   48  A    between atoms: _108  and  _109
REMARK   49  A    between atoms: _113  and  _115
REMARK   50  A    between atoms: _115  and  _116
REMARK   51  A    between atoms: _115  and  _118
REMARK   52  A    between atoms: _118  and  _119
REMARK   53  A    between atoms: _119  and  _120
REMARK   54  A    between atoms: _122  and  _124
REMARK   55  A    between atoms: _124  and  _125
REMARK   56  A    between atoms: _124  and  _127
REMARK   57  A    between atoms: _127  and  _128
REMARK   58  A    between atoms: _131  and  _133
REMARK   59  A    between atoms: _133  and  _134
REMARK   60  A    between atoms: _136  and  _138
REMARK   61  A    between atoms: _138  and  _139
REMARK   62  A    between atoms: _141  and  _143
REMARK   63  A    between atoms: _143  and  _144
REMARK   64  A    between atoms: _143  and  _146
REMARK   65  A    between atoms: _146  and  _147
REMARK   66  A    between atoms: _150  and  _152
REMARK   67  A    between atoms: _152  and  _153
REMARK   68  A    between atoms: _155  and  _157
REMARK   69  A    between atoms: _157  and  _158
REMARK   70  A    between atoms: _160  and  _162
REMARK   71  A    between atoms: _162  and  _163
REMARK   72  A    between atoms: _162  and  _165
REMARK   73  A    between atoms: _165  and  _166
REMARK   74  A    between atoms: _172  and  _174
REMARK   75  A    between atoms: _174  and  _175
REMARK   76  A    between atoms: _174  and  _177
REMARK   77  A    between atoms: _177  and  _178
REMARK   78  A    between atoms: _181  and  _183
REMARK   79  A    between atoms: _183  and  _184
REMARK   80  A    between atoms: _183  and  _186
REMARK   81  A    between atoms: _189  and  _191
REMARK   82  A    between atoms: _191  and  _192
REMARK   83  A    between atoms: _191  and  _194
REMARK   84  A    between atoms: _194  and  _195
REMARK   85  A    between atoms: _199  and  _200
REMARK   86  A    between atoms: _205  and  _207
REMARK   87  A    between atoms: _207  and  _208
REMARK   88  A    between atoms: _207  and  _210
REMARK   89  A    between atoms: _210  and  _211
REMARK   90  A    between atoms: _217  and  _218
REMARK   91  A    between atoms: _223  and  _225
REMARK   92  A    between atoms: _225  and  _226
REMARK   93  A    between atoms: _225  and  _228
REMARK   94  A    between atoms: _231  and  _233
REMARK   95  A    between atoms: _233  and  _234
REMARK   96  A    between atoms: _233  and  _236
REMARK   97  A    between atoms: _236  and  _237
REMARK   98  A    between atoms: _242  and  _244
REMARK   99  A    between atoms: _244  and  _245
REMARK  100  A    between atoms: _244  and  _247
REMARK  101  A    between atoms: _247  and  _248
REMARK  102  A    between atoms: _251  and  _253
REMARK  103  A    between atoms: _253  and  _254
REMARK  104  A    between atoms: _253  and  _256
REMARK  105  A    between atoms: _256  and  _257
REMARK  106  A    between atoms: _260  and  _262
REMARK  107  A    between atoms: _262  and  _263
REMARK  108  A    between atoms: _265  and  _267
REMARK  109  A    between atoms: _267  and  _268
REMARK  110  A    between atoms: _267  and  _270
REMARK  111  A    between atoms: _270  and  _271
REMARK  112  A    between atoms: _271  and  _272
REMARK  113  A    between atoms: _272  and  _273
REMARK  114  A    between atoms: _282  and  _284
REMARK  115  A    between atoms: _284  and  _285
REMARK  116  A    between atoms: _284  and  _287
REMARK  117  A    between atoms: _287  and  _288
REMARK  118  A    between atoms: _293  and  _295
REMARK  119  A    between atoms: _295  and  _296
REMARK  120  A    between atoms: _295  and  _298
REMARK  121  A    between atoms: _298  and  _299
REMARK  122  A    between atoms: _299  and  _300
REMARK  123  A    between atoms: _300  and  _301
REMARK  124  A    between atoms: _310  and  _312
REMARK  125  A    between atoms: _312  and  _313
REMARK  126  A    between atoms: _312  and  _315
REMARK  127  A    between atoms: _315  and  _316
REMARK  128  A    between atoms: _319  and  _321
REMARK  129  A    between atoms: _321  and  _322
REMARK  130  A    between atoms: _321  and  _324
REMARK  131  A    between atoms: _324  and  _325
REMARK  132  A    between atoms: _328  and  _330
REMARK  133  A    between atoms: _330  and  _331
REMARK  134  A    between atoms: _330  and  _333
REMARK  135  A    between atoms: _333  and  _334
REMARK  136  A    between atoms: _337  and  _339
REMARK  137  A    between atoms: _339  and  _340
REMARK  138  A    between atoms: _339  and  _342
REMARK  139  A    between atoms: _342  and  _343
REMARK  140  A    between atoms: _346  and  _348
REMARK  141  A    between atoms: _348  and  _349
REMARK  142  A    between atoms: _351  and  _353
REMARK  143  A    between atoms: _353  and  _354
REMARK  144  A    between atoms: _357  and  _359
REMARK  145  A    between atoms: _359  and  _360
REMARK  146  A    between atoms: _359  and  _362
REMARK  147  A    between atoms: _362  and  _363
REMARK  148  A    between atoms: _366  and  _368
REMARK  149  A    between atoms: _368  and  _369
REMARK  150  A    between atoms: _368  and  _371
REMARK  151  A    between atoms: _371  and  _372
REMARK  152  A    between atoms: _375  and  _377
REMARK  153  A    between atoms: _377  and  _378
REMARK  154  A    between atoms: _377  and  _380
REMARK  155  A    between atoms: _380  and  _381
REMARK  156  A    between atoms: _384  and  _386
REMARK  157  A    between atoms: _386  and  _387
REMARK  158  A    between atoms: _386  and  _389
REMARK  159  A    between atoms: _392  and  _394
REMARK  160  A    between atoms: _394  and  _395
REMARK  161  A    between atoms: _394  and  _397
REMARK  162  A    between atoms: _397  and  _398
REMARK  163  A    between atoms: _401  and  _403
REMARK  164  A    between atoms: _403  and  _404
REMARK  165  A    between atoms: _403  and  _406
REMARK  166  A    between atoms: _406  and  _407
REMARK  167  A    between atoms: _407  and  _408
REMARK  168  A    between atoms: _410  and  _412
REMARK  169  A    between atoms: _412  and  _413
REMARK  170  A    between atoms: _412  and  _415
REMARK  171  A    between atoms: _415  and  _416
REMARK  172  A    between atoms: _419  and  _421
REMARK  173  A    between atoms: _421  and  _422
REMARK  174  A    between atoms: _424  and  _426
REMARK  175  A    between atoms: _426  and  _427
REMARK  176  A    between atoms: _429  and  _431
REMARK  177  A    between atoms: _431  and  _432
REMARK  178  A    between atoms: _431  and  _434
REMARK  179  A    between atoms: _434  and  _435
REMARK  180  A    between atoms: _438  and  _440
REMARK  181  A    between atoms: _440  and  _441
REMARK  182  A    between atoms: _443  and  _445
REMARK  183  A    between atoms: _445  and  _446
REMARK  184  A    between atoms: _448  and  _450
REMARK  185  A    between atoms: _450  and  _451
REMARK  186  A    between atoms: _450  and  _453
REMARK  187  A    between atoms: _453  and  _454
REMARK  188  A    between atoms: _460  and  _462
REMARK  189  A    between atoms: _462  and  _463
REMARK  190  A    between atoms: _462  and  _465
REMARK  191  A    between atoms: _465  and  _466
REMARK  192  A    between atoms: _469  and  _471
REMARK  193  A    between atoms: _471  and  _472
REMARK  194  A    between atoms: _471  and  _474
REMARK  195  A    between atoms: _477  and  _479
REMARK  196  A    between atoms: _479  and  _480
REMARK  197  A    between atoms: _479  and  _482
REMARK  198  A    between atoms: _482  and  _483
REMARK  199  A    between atoms: _487  and  _488
REMARK  200  A    between atoms: _493  and  _495
REMARK  201  A    between atoms: _495  and  _496
REMARK  202  A    between atoms: _495  and  _498
REMARK  203  A    between atoms: _498  and  _499
REMARK  204  A    between atoms: _505  and  _506
REMARK  205  A    between atoms: _511  and  _513
REMARK  206  A    between atoms: _513  and  _514
REMARK  207  A    between atoms: _513  and  _516
REMARK  208  A    between atoms: _519  and  _521
REMARK  209  A    between atoms: _521  and  _522
REMARK  210  A    between atoms: _521  and  _524
REMARK  211  A    between atoms: _524  and  _525
REMARK  212  A    between atoms: _530  and  _532
REMARK  213  A    between atoms: _532  and  _533
REMARK  214  A    between atoms: _532  and  _535
REMARK  215  A    between atoms: _535  and  _536
REMARK  216  A    between atoms: _539  and  _541
REMARK  217  A    between atoms: _541  and  _542
REMARK  218  A    between atoms: _541  and  _544
REMARK  219  A    between atoms: _544  and  _545
REMARK  220  A    between atoms: _548  and  _550
REMARK  221  A    between atoms: _550  and  _551
REMARK  222  A    between atoms: _553  and  _555
REMARK  223  A    between atoms: _555  and  _556
REMARK  224  A    between atoms: _555  and  _558
REMARK  225  A    between atoms: _558  and  _559
REMARK  226  A    between atoms: _559  and  _560
REMARK  227  A    between atoms: _560  and  _561
REMARK  228  A    between atoms: _570  and  _572
REMARK  229  A    between atoms: _572  and  _573
REMARK  230  A    between atoms: _572  and  _575
REMARK  231  A    between atoms: _575  and  _576
REMARK                            x       y       z     vdW  Elec       q    Type
REMARK                         _______ _______ _______ _____ _____    ______ ____
ROOT
ATOM      1  O   HOH     1      25.955   8.942  21.531  0.00  0.00    +0.000 OA
ENDROOT
TORSDOF 0
REMARK  Name = ../refined-set-2016/2fgv/2fgv_pocket.pdb
REMARK  231 active torsions:
REMARK  status: ('A' for Active; 'I' for Inactive)
REMARK    1  A    between atoms: _1  and  _3
REMARK    2  A    between atoms: _3  and  _4
REMARK    3  A    between atoms: _3  and  _6
REMARK    4  A    between atoms: _6  and  _7
REMARK    5  A    between atoms: _7  and  _8
REMARK    6  A    between atoms: _8  and  _9
REMARK    7  A    between atoms: _18  and  _20
REMARK    8  A    between atoms: _20  and  _21
REMARK    9  A    between atoms: _20  and  _23
REMARK   10  A    between atoms: _23  and  _24
REMARK   11  A    between atoms: _27  and  _29
REMARK   12  A    between atoms: _29  and  _30
REMARK   13  A    between atoms: _29  and  _32
REMARK   14  A    between atoms: _32  and  _33
REMARK   15  A    between atoms: _36  and  _38
REMARK   16  A    between atoms: _38  and  _39
REMARK   17  A    between atoms: _38  and  _41
REMARK   18  A    between atoms: _41  and  _42
REMARK   19  A    between atoms: _45  and  _47
REMARK   20  A    between atoms: _47  and  _48
REMARK   21  A    between atoms: _47  and  _50
REMARK   22  A    between atoms: _50  and  _51
REMARK   23  A    between atoms: _54  and  _56
REMARK   24  A    between atoms: _56  and  _57
REMARK   25  A    between atoms: _59  and  _61
REMARK   26  A    between atoms: _61  and  _62
REMARK   27  A    between atoms: _65  and  _67
REMARK   28  A    between atoms: _67  and  _68
REMARK   29  A    between atoms: _67  and  _70
REMARK   30  A    between atoms: _70  and  _71
REMARK   31  A    between atoms: _74  and  _76
REMARK   32  A    between atoms: _76  and  _77
REMARK   33  A    between atoms: _76  and  _79
REMARK   34  A    between atoms: _79  and  _80
REMARK   35  A    between atoms: _83  and  _85
REMARK   36  A    between atoms: _85  and  _86
REMARK   37  A    between atoms: _85  and  _88
REMARK   38  A    between atoms: _88  and  _89
REMARK   39  A    between atoms: _92  and  _94
REMARK   40  A    between atoms: _94  and  _95
REMARK   41  A    between atoms: _94  and  _97
REMARK   42  A    between atoms: _100  and  _102
REMARK   43  A    between atoms: _102  and  _103
REMARK   44  A    between atoms: _102  and  _105
REMARK   45  A    between atoms: _105  and  _106
REMARK   46  A    between atoms: _106  and  _107
REMARK   47  A    between atoms: _107  and  _108
REMARK   48  A    between atoms: _108  and  _109
REMARK   49  A    between atoms: _113  and  _115
REMARK   50  A    between atoms: _115  and  _116
REMARK   51  A    between atoms: _115  and  _118
REMARK   52  A    between atoms: _118  and  _119
REMARK   53  A    between atoms: _119  and  _120
REMARK   54  A    between atoms: _122  and  _124
REMARK   55  A    between atoms: _124  and  _125
REMARK   56  A    between atoms: _124  and  _127
REMARK   57  A    between atoms: _127  and  _128
REMARK   58  A    between atoms: _131  and  _133
REMARK   59  A    between atoms: _133  and  _134
REMARK   60  A    between atoms: _136  and  _138
REMARK   61  A    between atoms: _138  and  _139
REMARK   62  A    between atoms: _141  and  _143
REMARK   63  A    between atoms: _143  and  _144
REMARK   64  A    between atoms: _143  and  _146
REMARK   65  A    between atoms: _146  and  _147
REMARK   66  A    between atoms: _150  and  _152
REMARK   67  A    between atoms: _152  and  _153
REMARK   68  A    between atoms: _155  and  _157
REMARK   69  A    between atoms: _157  and  _158
REMARK   70  A    between atoms: _160  and  _162
REMARK   71  A    between atoms: _162  and  _163
REMARK   72  A    between atoms: _162  and  _165
REMARK   73  A    between atoms: _165  and  _166
REMARK   74  A    between atoms: _172  and  _174
REMARK   75  A    between atoms: _174  and  _175
REMARK   76  A    between atoms: _174  and  _177
REMARK   77  A    between atoms: _177  and  _178
REMARK   78  A    between atoms: _181  and  _183
REMARK   79  A    between atoms: _183  and  _184
REMARK   80  A    between atoms: _183  and  _186
REMARK   81  A    between atoms: _189  and  _191
REMARK   82  A    between atoms: _191  and  _192
REMARK   83  A    between atoms: _191  and  _194
REMARK   84  A    between atoms: _194  and  _195
REMARK   85  A    between atoms: _199  and  _200
REMARK   86  A    between atoms: _205  and  _207
REMARK   87  A    between atoms: _207  and  _208
REMARK   88  A    between atoms: _207  and  _210
REMARK   89  A    between atoms: _210  and  _211
REMARK   90  A    between atoms: _217  and  _218
REMARK   91  A    between atoms: _223  and  _225
REMARK   92  A    between atoms: _225  and  _226
REMARK   93  A    between atoms: _225  and  _228
REMARK   94  A    between atoms: _231  and  _233
REMARK   95  A    between atoms: _233  and  _234
REMARK   96  A    between atoms: _233  and  _236
REMARK   97  A    between atoms: _236  and  _237
REMARK   98  A    between atoms: _242  and  _244
REMARK   99  A    between atoms: _244  and  _245
REMARK  100  A    between atoms: _244  and  _247
REMARK  101  A    between atoms: _247  and  _248
REMARK  102  A    between atoms: _251  and  _253
REMARK  103  A    between atoms: _253  and  _254
REMARK  104  A    between atoms: _253  and  _256
REMARK  105  A    between atoms: _256  and  _257
REMARK  106  A    between atoms: _260  and  _262
REMARK  107  A    between atoms: _262  and  _263
REMARK  108  A    between atoms: _265  and  _267
REMARK  109  A    between atoms: _267  and  _268
REMARK  110  A    between atoms: _267  and  _270
REMARK  111  A    between atoms: _270  and  _271
REMARK  112  A    between atoms: _271  and  _272
REMARK  113  A    between atoms: _272  and  _273
REMARK  114  A    between atoms: _282  and  _284
REMARK  115  A    between atoms: _284  and  _285
REMARK  116  A    between atoms: _284  and  _287
REMARK  117  A    between atoms: _287  and  _288
REMARK  118  A    between atoms: _293  and  _295
REMARK  119  A    between atoms: _295  and  _296
REMARK  120  A    between atoms: _295  and  _298
REMARK  121  A    between atoms: _298  and  _299
REMARK  122  A    between atoms: _299  and  _300
REMARK  123  A    between atoms: _300  and  _301
REMARK  124  A    between atoms: _310  and  _312
REMARK  125  A    between atoms: _312  and  _313
REMARK  126  A    between atoms: _312  and  _315
REMARK  127  A    between atoms: _315  and  _316
REMARK  128  A    between atoms: _319  and  _321
REMARK  129  A    between atoms: _321  and  _322
REMARK  130  A    between atoms: _321  and  _324
REMARK  131  A    between atoms: _324  and  _325
REMARK  132  A    between atoms: _328  and  _330
REMARK  133  A    between atoms: _330  and  _331
REMARK  134  A    between atoms: _330  and  _333
REMARK  135  A    between atoms: _333  and  _334
REMARK  136  A    between atoms: _337  and  _339
REMARK  137  A    between atoms: _339  and  _340
REMARK  138  A    between atoms: _339  and  _342
REMARK  139  A    between atoms: _342  and  _343
REMARK  140  A    between atoms: _346  and  _348
REMARK  141  A    between atoms: _348  and  _349
REMARK  142  A    between atoms: _351  and  _353
REMARK  143  A    between atoms: _353  and  _354
REMARK  144  A    between atoms: _357  and  _359
REMARK  145  A    between atoms: _359  and  _360
REMARK  146  A    between atoms: _359  and  _362
REMARK  147  A    between atoms: _362  and  _363
REMARK  148  A    between atoms: _366  and  _368
REMARK  149  A    between atoms: _368  and  _369
REMARK  150  A    between atoms: _368  and  _371
REMARK  151  A    between atoms: _371  and  _372
REMARK  152  A    between atoms: _375  and  _377
REMARK  153  A    between atoms: _377  and  _378
REMARK  154  A    between atoms: _377  and  _380
REMARK  155  A    between atoms: _380  and  _381
REMARK  156  A    between atoms: _384  and  _386
REMARK  157  A    between atoms: _386  and  _387
REMARK  158  A    between atoms: _386  and  _389
REMARK  159  A    between atoms: _392  and  _394
REMARK  160  A    between atoms: _394  and  _395
REMARK  161  A    between atoms: _394  and  _397
REMARK  162  A    between atoms: _397  and  _398
REMARK  163  A    between atoms: _401  and  _403
REMARK  164  A    between atoms: _403  and  _404
REMARK  165  A    between atoms: _403  and  _406
REMARK  166  A    between atoms: _406  and  _407
REMARK  167  A    between atoms: _407  and  _408
REMARK  168  A    between atoms: _410  and  _412
REMARK  169  A    between atoms: _412  and  _413
REMARK  170  A    between atoms: _412  and  _415
REMARK  171  A    between atoms: _415  and  _416
REMARK  172  A    between atoms: _419  and  _421
REMARK  173  A    between atoms: _421  and  _422
REMARK  174  A    between atoms: _424  and  _426
REMARK  175  A    between atoms: _426  and  _427
REMARK  176  A    between atoms: _429  and  _431
REMARK  177  A    between atoms: _431  and  _432
REMARK  178  A    between atoms: _431  and  _434
REMARK  179  A    between atoms: _434  and  _435
REMARK  180  A    between atoms: _438  and  _440
REMARK  181  A    between atoms: _440  and  _441
REMARK  182  A    between atoms: _443  and  _445
REMARK  183  A    between atoms: _445  and  _446
REMARK  184  A    between atoms: _448  and  _450
REMARK  185  A    between atoms: _450  and  _451
REMARK  186  A    between atoms: _450  and  _453
REMARK  187  A    between atoms: _453  and  _454
REMARK  188  A    between atoms: _460  and  _462
REMARK  189  A    between atoms: _462  and  _463
REMARK  190  A    between atoms: _462  and  _465
REMARK  191  A    between atoms: _465  and  _466
REMARK  192  A    between atoms: _469  and  _471
REMARK  193  A    between atoms: _471  and  _472
REMARK  194  A    between atoms: _471  and  _474
REMARK  195  A    between atoms: _477  and  _479
REMARK  196  A    between atoms: _479  and  _480
REMARK  197  A    between atoms: _479  and  _482
REMARK  198  A    between atoms: _482  and  _483
REMARK  199  A    between atoms: _487  and  _488
REMARK  200  A    between atoms: _493  and  _495
REMARK  201  A    between atoms: _495  and  _496
REMARK  202  A    between atoms: _495  and  _498
REMARK  203  A    between atoms: _498  and  _499
REMARK  204  A    between atoms: _505  and  _506
REMARK  205  A    between atoms: _511  and  _513
REMARK  206  A    between atoms: _513  and  _514
REMARK  207  A    between atoms: _513  and  _516
REMARK  208  A    between atoms: _519  and  _521
REMARK  209  A    between atoms: _521  and  _522
REMARK  210  A    between atoms: _521  and  _524
REMARK  211  A    between atoms: _524  and  _525
REMARK  212  A    between atoms: _530  and  _532
REMARK  213  A    between atoms: _532  and  _533
REMARK  214  A    between atoms: _532  and  _535
REMARK  215  A    between atoms: _535  and  _536
REMARK  216  A    between atoms: _539  and  _541
REMARK  217  A    between atoms: _541  and  _542
REMARK  218  A    between atoms: _541  and  _544
REMARK  219  A    between atoms: _544  and  _545
REMARK  220  A    between atoms: _548  and  _550
REMARK  221  A    between atoms: _550  and  _551
REMARK  222  A    between atoms: _553  and  _555
REMARK  223  A    between atoms: _555  and  _556
REMARK  224  A    between atoms: _555  and  _558
REMARK  225  A    between atoms: _558  and  _559
REMARK  226  A    between atoms: _559  and  _560
REMARK  227  A    between atoms: _560  and  _561
REMARK  228  A    between atoms: _570  and  _572
REMARK  229  A    between atoms: _572  and  _573
REMARK  230  A    between atoms: _572  and  _575
REMARK  231  A    between atoms: _575  and  _576
REMARK                            x       y       z     vdW  Elec       q    Type
REMARK                         _______ _______ _______ _____ _____    ______ ____
ROOT
ATOM      1  O   HOH     1      23.800   5.150  21.945  0.00  0.00    +0.000 OA
ENDROOT
TORSDOF 0
REMARK  Name = ../refined-set-2016/2fgv/2fgv_pocket.pdb
REMARK  231 active torsions:
REMARK  status: ('A' for Active; 'I' for Inactive)
REMARK    1  A    between atoms: _1  and  _3
REMARK    2  A    between atoms: _3  and  _4
REMARK    3  A    between atoms: _3  and  _6
REMARK    4  A    between atoms: _6  and  _7
REMARK    5  A    between atoms: _7  and  _8
REMARK    6  A    between atoms: _8  and  _9
REMARK    7  A    between atoms: _18  and  _20
REMARK    8  A    between atoms: _20  and  _21
REMARK    9  A    between atoms: _20  and  _23
REMARK   10  A    between atoms: _23  and  _24
REMARK   11  A    between atoms: _27  and  _29
REMARK   12  A    between atoms: _29  and  _30
REMARK   13  A    between atoms: _29  and  _32
REMARK   14  A    between atoms: _32  and  _33
REMARK   15  A    between atoms: _36  and  _38
REMARK   16  A    between atoms: _38  and  _39
REMARK   17  A    between atoms: _38  and  _41
REMARK   18  A    between atoms: _41  and  _42
REMARK   19  A    between atoms: _45  and  _47
REMARK   20  A    between atoms: _47  and  _48
REMARK   21  A    between atoms: _47  and  _50
REMARK   22  A    between atoms: _50  and  _51
REMARK   23  A    between atoms: _54  and  _56
REMARK   24  A    between atoms: _56  and  _57
REMARK   25  A    between atoms: _59  and  _61
REMARK   26  A    between atoms: _61  and  _62
REMARK   27  A    between atoms: _65  and  _67
REMARK   28  A    between atoms: _67  and  _68
REMARK   29  A    between atoms: _67  and  _70
REMARK   30  A    between atoms: _70  and  _71
REMARK   31  A    between atoms: _74  and  _76
REMARK   32  A    between atoms: _76  and  _77
REMARK   33  A    between atoms: _76  and  _79
REMARK   34  A    between atoms: _79  and  _80
REMARK   35  A    between atoms: _83  and  _85
REMARK   36  A    between atoms: _85  and  _86
REMARK   37  A    between atoms: _85  and  _88
REMARK   38  A    between atoms: _88  and  _89
REMARK   39  A    between atoms: _92  and  _94
REMARK   40  A    between atoms: _94  and  _95
REMARK   41  A    between atoms: _94  and  _97
REMARK   42  A    between atoms: _100  and  _102
REMARK   43  A    between atoms: _102  and  _103
REMARK   44  A    between atoms: _102  and  _105
REMARK   45  A    between atoms: _105  and  _106
REMARK   46  A    between atoms: _106  and  _107
REMARK   47  A    between atoms: _107  and  _108
REMARK   48  A    between atoms: _108  and  _109
REMARK   49  A    between atoms: _113  and  _115
REMARK   50  A    between atoms: _115  and  _116
REMARK   51  A    between atoms: _115  and  _118
REMARK   52  A    between atoms: _118  and  _119
REMARK   53  A    between atoms: _119  and  _120
REMARK   54  A    between atoms: _122  and  _124
REMARK   55  A    between atoms: _124  and  _125
REMARK   56  A    between atoms: _124  and  _127
REMARK   57  A    between atoms: _127  and  _128
REMARK   58  A    between atoms: _131  and  _133
REMARK   59  A    between atoms: _133  and  _134
REMARK   60  A    between atoms: _136  and  _138
REMARK   61  A    between atoms: _138  and  _139
REMARK   62  A    between atoms: _141  and  _143
REMARK   63  A    between atoms: _143  and  _144
REMARK   64  A    between atoms: _143  and  _146
REMARK   65  A    between atoms: _146  and  _147
REMARK   66  A    between atoms: _150  and  _152
REMARK   67  A    between atoms: _152  and  _153
REMARK   68  A    between atoms: _155  and  _157
REMARK   69  A    between atoms: _157  and  _158
REMARK   70  A    between atoms: _160  and  _162
REMARK   71  A    between atoms: _162  and  _163
REMARK   72  A    between atoms: _162  and  _165
REMARK   73  A    between atoms: _165  and  _166
REMARK   74  A    between atoms: _172  and  _174
REMARK   75  A    between atoms: _174  and  _175
REMARK   76  A    between atoms: _174  and  _177
REMARK   77  A    between atoms: _177  and  _178
REMARK   78  A    between atoms: _181  and  _183
REMARK   79  A    between atoms: _183  and  _184
REMARK   80  A    between atoms: _183  and  _186
REMARK   81  A    between atoms: _189  and  _191
REMARK   82  A    between atoms: _191  and  _192
REMARK   83  A    between atoms: _191  and  _194
REMARK   84  A    between atoms: _194  and  _195
REMARK   85  A    between atoms: _199  and  _200
REMARK   86  A    between atoms: _205  and  _207
REMARK   87  A    between atoms: _207  and  _208
REMARK   88  A    between atoms: _207  and  _210
REMARK   89  A    between atoms: _210  and  _211
REMARK   90  A    between atoms: _217  and  _218
REMARK   91  A    between atoms: _223  and  _225
REMARK   92  A    between atoms: _225  and  _226
REMARK   93  A    between atoms: _225  and  _228
REMARK   94  A    between atoms: _231  and  _233
REMARK   95  A    between atoms: _233  and  _234
REMARK   96  A    between atoms: _233  and  _236
REMARK   97  A    between atoms: _236  and  _237
REMARK   98  A    between atoms: _242  and  _244
REMARK   99  A    between atoms: _244  and  _245
REMARK  100  A    between atoms: _244  and  _247
REMARK  101  A    between atoms: _247  and  _248
REMARK  102  A    between atoms: _251  and  _253
REMARK  103  A    between atoms: _253  and  _254
REMARK  104  A    between atoms: _253  and  _256
REMARK  105  A    between atoms: _256  and  _257
REMARK  106  A    between atoms: _260  and  _262
REMARK  107  A    between atoms: _262  and  _263
REMARK  108  A    between atoms: _265  and  _267
REMARK  109  A    between atoms: _267  and  _268
REMARK  110  A    between atoms: _267  and  _270
REMARK  111  A    between atoms: _270  and  _271
REMARK  112  A    between atoms: _271  and  _272
REMARK  113  A    between atoms: _272  and  _273
REMARK  114  A    between atoms: _282  and  _284
REMARK  115  A    between atoms: _284  and  _285
REMARK  116  A    between atoms: _284  and  _287
REMARK  117  A    between atoms: _287  and  _288
REMARK  118  A    between atoms: _293  and  _295
REMARK  119  A    between atoms: _295  and  _296
REMARK  120  A    between atoms: _295  and  _298
REMARK  121  A    between atoms: _298  and  _299
REMARK  122  A    between atoms: _299  and  _300
REMARK  123  A    between atoms: _300  and  _301
REMARK  124  A    between atoms: _310  and  _312
REMARK  125  A    between atoms: _312  and  _313
REMARK  126  A    between atoms: _312  and  _315
REMARK  127  A    between atoms: _315  and  _316
REMARK  128  A    between atoms: _319  and  _321
REMARK  129  A    between atoms: _321  and  _322
REMARK  130  A    between atoms: _321  and  _324
REMARK  131  A    between atoms: _324  and  _325
REMARK  132  A    between atoms: _328  and  _330
REMARK  133  A    between atoms: _330  and  _331
REMARK  134  A    between atoms: _330  and  _333
REMARK  135  A    between atoms: _333  and  _334
REMARK  136  A    between atoms: _337  and  _339
REMARK  137  A    between atoms: _339  and  _340
REMARK  138  A    between atoms: _339  and  _342
REMARK  139  A    between atoms: _342  and  _343
REMARK  140  A    between atoms: _346  and  _348
REMARK  141  A    between atoms: _348  and  _349
REMARK  142  A    between atoms: _351  and  _353
REMARK  143  A    between atoms: _353  and  _354
REMARK  144  A    between atoms: _357  and  _359
REMARK  145  A    between atoms: _359  and  _360
REMARK  146  A    between atoms: _359  and  _362
REMARK  147  A    between atoms: _362  and  _363
REMARK  148  A    between atoms: _366  and  _368
REMARK  149  A    between atoms: _368  and  _369
REMARK  150  A    between atoms: _368  and  _371
REMARK  151  A    between atoms: _371  and  _372
REMARK  152  A    between atoms: _375  and  _377
REMARK  153  A    between atoms: _377  and  _378
REMARK  154  A    between atoms: _377  and  _380
REMARK  155  A    between atoms: _380  and  _381
REMARK  156  A    between atoms: _384  and  _386
REMARK  157  A    between atoms: _386  and  _387
REMARK  158  A    between atoms: _386  and  _389
REMARK  159  A    between atoms: _392  and  _394
REMARK  160  A    between atoms: _394  and  _395
REMARK  161  A    between atoms: _394  and  _397
REMARK  162  A    between atoms: _397  and  _398
REMARK  163  A    between atoms: _401  and  _403
REMARK  164  A    between atoms: _403  and  _404
REMARK  165  A    between atoms: _403  and  _406
REMARK  166  A    between atoms: _406  and  _407
REMARK  167  A    between atoms: _407  and  _408
REMARK  168  A    between atoms: _410  and  _412
REMARK  169  A    between atoms: _412  and  _413
REMARK  170  A    between atoms: _412  and  _415
REMARK  171  A    between atoms: _415  and  _416
REMARK  172  A    between atoms: _419  and  _421
REMARK  173  A    between atoms: _421  and  _422
REMARK  174  A    between atoms: _424  and  _426
REMARK  175  A    between atoms: _426  and  _427
REMARK  176  A    between atoms: _429  and  _431
REMARK  177  A    between atoms: _431  and  _432
REMARK  178  A    between atoms: _431  and  _434
REMARK  179  A    between atoms: _434  and  _435
REMARK  180  A    between atoms: _438  and  _440
REMARK  181  A    between atoms: _440  and  _441
REMARK  182  A    between atoms: _443  and  _445
REMARK  183  A    between atoms: _445  and  _446
REMARK  184  A    between atoms: _448  and  _450
REMARK  185  A    between atoms: _450  and  _451
REMARK  186  A    between atoms: _450  and  _453
REMARK  187  A    between atoms: _453  and  _454
REMARK  188  A    between atoms: _460  and  _462
REMARK  189  A    between atoms: _462  and  _463
REMARK  190  A    between atoms: _462  and  _465
REMARK  191  A    between atoms: _465  and  _466
REMARK  192  A    between atoms: _469  and  _471
REMARK  193  A    between atoms: _471  and  _472
REMARK  194  A    between atoms: _471  and  _474
REMARK  195  A    between atoms: _477  and  _479
REMARK  196  A    between atoms: _479  and  _480
REMARK  197  A    between atoms: _479  and  _482
REMARK  198  A    between atoms: _482  and  _483
REMARK  199  A    between atoms: _487  and  _488
REMARK  200  A    between atoms: _493  and  _495
REMARK  201  A    between atoms: _495  and  _496
REMARK  202  A    between atoms: _495  and  _498
REMARK  203  A    between atoms: _498  and  _499
REMARK  204  A    between atoms: _505  and  _506
REMARK  205  A    between atoms: _511  and  _513
REMARK  206  A    between atoms: _513  and  _514
REMARK  207  A    between atoms: _513  and  _516
REMARK  208  A    between atoms: _519  and  _521
REMARK  209  A    between atoms: _521  and  _522
REMARK  210  A    between atoms: _521  and  _524
REMARK  211  A    between atoms: _524  and  _525
REMARK  212  A    between atoms: _530  and  _532
REMARK  213  A    between atoms: _532  and  _533
REMARK  214  A    between atoms: _532  and  _535
REMARK  215  A    between atoms: _535  and  _536
REMARK  216  A    between atoms: _539  and  _541
REMARK  217  A    between atoms: _541  and  _542
REMARK  218  A    between atoms: _541  and  _544
REMARK  219  A    between atoms: _544  and  _545
REMARK  220  A    between atoms: _548  and  _550
REMARK  221  A    between atoms: _550  and  _551
REMARK  222  A    between atoms: _553  and  _555
REMARK  223  A    between atoms: _555  and  _556
REMARK  224  A    between atoms: _555  and  _558
REMARK  225  A    between atoms: _558  and  _559
REMARK  226  A    between atoms: _559  and  _560
REMARK  227  A    between atoms: _560  and  _561
REMARK  228  A    between atoms: _570  and  _572
REMARK  229  A    between atoms: _572  and  _573
REMARK  230  A    between atoms: _572  and  _575
REMARK  231  A    between atoms: _575  and  _576
REMARK                            x       y       z     vdW  Elec       q    Type
REMARK                         _______ _______ _______ _____ _____    ______ ____
ROOT
ATOM      1  O   HOH     1      28.310  -8.297   8.550  0.00  0.00    +0.000 OA
ENDROOT
TORSDOF 0
REMARK  Name = ../refined-set-2016/2fgv/2fgv_pocket.pdb
REMARK  231 active torsions:
REMARK  status: ('A' for Active; 'I' for Inactive)
REMARK    1  A    between atoms: _1  and  _3
REMARK    2  A    between atoms: _3  and  _4
REMARK    3  A    between atoms: _3  and  _6
REMARK    4  A    between atoms: _6  and  _7
REMARK    5  A    between atoms: _7  and  _8
REMARK    6  A    between atoms: _8  and  _9
REMARK    7  A    between atoms: _18  and  _20
REMARK    8  A    between atoms: _20  and  _21
REMARK    9  A    between atoms: _20  and  _23
REMARK   10  A    between atoms: _23  and  _24
REMARK   11  A    between atoms: _27  and  _29
REMARK   12  A    between atoms: _29  and  _30
REMARK   13  A    between atoms: _29  and  _32
REMARK   14  A    between atoms: _32  and  _33
REMARK   15  A    between atoms: _36  and  _38
REMARK   16  A    between atoms: _38  and  _39
REMARK   17  A    between atoms: _38  and  _41
REMARK   18  A    between atoms: _41  and  _42
REMARK   19  A    between atoms: _45  and  _47
REMARK   20  A    between atoms: _47  and  _48
REMARK   21  A    between atoms: _47  and  _50
REMARK   22  A    between atoms: _50  and  _51
REMARK   23  A    between atoms: _54  and  _56
REMARK   24  A    between atoms: _56  and  _57
REMARK   25  A    between atoms: _59  and  _61
REMARK   26  A    between atoms: _61  and  _62
REMARK   27  A    between atoms: _65  and  _67
REMARK   28  A    between atoms: _67  and  _68
REMARK   29  A    between atoms: _67  and  _70
REMARK   30  A    between atoms: _70  and  _71
REMARK   31  A    between atoms: _74  and  _76
REMARK   32  A    between atoms: _76  and  _77
REMARK   33  A    between atoms: _76  and  _79
REMARK   34  A    between atoms: _79  and  _80
REMARK   35  A    between atoms: _83  and  _85
REMARK   36  A    between atoms: _85  and  _86
REMARK   37  A    between atoms: _85  and  _88
REMARK   38  A    between atoms: _88  and  _89
REMARK   39  A    between atoms: _92  and  _94
REMARK   40  A    between atoms: _94  and  _95
REMARK   41  A    between atoms: _94  and  _97
REMARK   42  A    between atoms: _100  and  _102
REMARK   43  A    between atoms: _102  and  _103
REMARK   44  A    between atoms: _102  and  _105
REMARK   45  A    between atoms: _105  and  _106
REMARK   46  A    between atoms: _106  and  _107
REMARK   47  A    between atoms: _107  and  _108
REMARK   48  A    between atoms: _108  and  _109
REMARK   49  A    between atoms: _113  and  _115
REMARK   50  A    between atoms: _115  and  _116
REMARK   51  A    between atoms: _115  and  _118
REMARK   52  A    between atoms: _118  and  _119
REMARK   53  A    between atoms: _119  and  _120
REMARK   54  A    between atoms: _122  and  _124
REMARK   55  A    between atoms: _124  and  _125
REMARK   56  A    between atoms: _124  and  _127
REMARK   57  A    between atoms: _127  and  _128
REMARK   58  A    between atoms: _131  and  _133
REMARK   59  A    between atoms: _133  and  _134
REMARK   60  A    between atoms: _136  and  _138
REMARK   61  A    between atoms: _138  and  _139
REMARK   62  A    between atoms: _141  and  _143
REMARK   63  A    between atoms: _143  and  _144
REMARK   64  A    between atoms: _143  and  _146
REMARK   65  A    between atoms: _146  and  _147
REMARK   66  A    between atoms: _150  and  _152
REMARK   67  A    between atoms: _152  and  _153
REMARK   68  A    between atoms: _155  and  _157
REMARK   69  A    between atoms: _157  and  _158
REMARK   70  A    between atoms: _160  and  _162
REMARK   71  A    between atoms: _162  and  _163
REMARK   72  A    between atoms: _162  and  _165
REMARK   73  A    between atoms: _165  and  _166
REMARK   74  A    between atoms: _172  and  _174
REMARK   75  A    between atoms: _174  and  _175
REMARK   76  A    between atoms: _174  and  _177
REMARK   77  A    between atoms: _177  and  _178
REMARK   78  A    between atoms: _181  and  _183
REMARK   79  A    between atoms: _183  and  _184
REMARK   80  A    between atoms: _183  and  _186
REMARK   81  A    between atoms: _189  and  _191
REMARK   82  A    between atoms: _191  and  _192
REMARK   83  A    between atoms: _191  and  _194
REMARK   84  A    between atoms: _194  and  _195
REMARK   85  A    between atoms: _199  and  _200
REMARK   86  A    between atoms: _205  and  _207
REMARK   87  A    between atoms: _207  and  _208
REMARK   88  A    between atoms: _207  and  _210
REMARK   89  A    between atoms: _210  and  _211
REMARK   90  A    between atoms: _217  and  _218
REMARK   91  A    between atoms: _223  and  _225
REMARK   92  A    between atoms: _225  and  _226
REMARK   93  A    between atoms: _225  and  _228
REMARK   94  A    between atoms: _231  and  _233
REMARK   95  A    between atoms: _233  and  _234
REMARK   96  A    between atoms: _233  and  _236
REMARK   97  A    between atoms: _236  and  _237
REMARK   98  A    between atoms: _242  and  _244
REMARK   99  A    between atoms: _244  and  _245
REMARK  100  A    between atoms: _244  and  _247
REMARK  101  A    between atoms: _247  and  _248
REMARK  102  A    between atoms: _251  and  _253
REMARK  103  A    between atoms: _253  and  _254
REMARK  104  A    between atoms: _253  and  _256
REMARK  105  A    between atoms: _256  and  _257
REMARK  106  A    between atoms: _260  and  _262
REMARK  107  A    between atoms: _262  and  _263
REMARK  108  A    between atoms: _265  and  _267
REMARK  109  A    between atoms: _267  and  _268
REMARK  110  A    between atoms: _267  and  _270
REMARK  111  A    between atoms: _270  and  _271
REMARK  112  A    between atoms: _271  and  _272
REMARK  113  A    between atoms: _272  and  _273
REMARK  114  A    between atoms: _282  and  _284
REMARK  115  A    between atoms: _284  and  _285
REMARK  116  A    between atoms: _284  and  _287
REMARK  117  A    between atoms: _287  and  _288
REMARK  118  A    between atoms: _293  and  _295
REMARK  119  A    between atoms: _295  and  _296
REMARK  120  A    between atoms: _295  and  _298
REMARK  121  A    between atoms: _298  and  _299
REMARK  122  A    between atoms: _299  and  _300
REMARK  123  A    between atoms: _300  and  _301
REMARK  124  A    between atoms: _310  and  _312
REMARK  125  A    between atoms: _312  and  _313
REMARK  126  A    between atoms: _312  and  _315
REMARK  127  A    between atoms: _315  and  _316
REMARK  128  A    between atoms: _319  and  _321
REMARK  129  A    between atoms: _321  and  _322
REMARK  130  A    between atoms: _321  and  _324
REMARK  131  A    between atoms: _324  and  _325
REMARK  132  A    between atoms: _328  and  _330
REMARK  133  A    between atoms: _330  and  _331
REMARK  134  A    between atoms: _330  and  _333
REMARK  135  A    between atoms: _333  and  _334
REMARK  136  A    between atoms: _337  and  _339
REMARK  137  A    between atoms: _339  and  _340
REMARK  138  A    between atoms: _339  and  _342
REMARK  139  A    between atoms: _342  and  _343
REMARK  140  A    between atoms: _346  and  _348
REMARK  141  A    between atoms: _348  and  _349
REMARK  142  A    between atoms: _351  and  _353
REMARK  143  A    between atoms: _353  and  _354
REMARK  144  A    between atoms: _357  and  _359
REMARK  145  A    between atoms: _359  and  _360
REMARK  146  A    between atoms: _359  and  _362
REMARK  147  A    between atoms: _362  and  _363
REMARK  148  A    between atoms: _366  and  _368
REMARK  149  A    between atoms: _368  and  _369
REMARK  150  A    between atoms: _368  and  _371
REMARK  151  A    between atoms: _371  and  _372
REMARK  152  A    between atoms: _375  and  _377
REMARK  153  A    between atoms: _377  and  _378
REMARK  154  A    between atoms: _377  and  _380
REMARK  155  A    between atoms: _380  and  _381
REMARK  156  A    between atoms: _384  and  _386
REMARK  157  A    between atoms: _386  and  _387
REMARK  158  A    between atoms: _386  and  _389
REMARK  159  A    between atoms: _392  and  _394
REMARK  160  A    between atoms: _394  and  _395
REMARK  161  A    between atoms: _394  and  _397
REMARK  162  A    between atoms: _397  and  _398
REMARK  163  A    between atoms: _401  and  _403
REMARK  164  A    between atoms: _403  and  _404
REMARK  165  A    between atoms: _403  and  _406
REMARK  166  A    between atoms: _406  and  _407
REMARK  167  A    between atoms: _407  and  _408
REMARK  168  A    between atoms: _410  and  _412
REMARK  169  A    between atoms: _412  and  _413
REMARK  170  A    between atoms: _412  and  _415
REMARK  171  A    between atoms: _415  and  _416
REMARK  172  A    between atoms: _419  and  _421
REMARK  173  A    between atoms: _421  and  _422
REMARK  174  A    between atoms: _424  and  _426
REMARK  175  A    between atoms: _426  and  _427
REMARK  176  A    between atoms: _429  and  _431
REMARK  177  A    between atoms: _431  and  _432
REMARK  178  A    between atoms: _431  and  _434
REMARK  179  A    between atoms: _434  and  _435
REMARK  180  A    between atoms: _438  and  _440
REMARK  181  A    between atoms: _440  and  _441
REMARK  182  A    between atoms: _443  and  _445
REMARK  183  A    between atoms: _445  and  _446
REMARK  184  A    between atoms: _448  and  _450
REMARK  185  A    between atoms: _450  and  _451
REMARK  186  A    between atoms: _450  and  _453
REMARK  187  A    between atoms: _453  and  _454
REMARK  188  A    between atoms: _460  and  _462
REMARK  189  A    between atoms: _462  and  _463
REMARK  190  A    between atoms: _462  and  _465
REMARK  191  A    between atoms: _465  and  _466
REMARK  192  A    between atoms: _469  and  _471
REMARK  193  A    between atoms: _471  and  _472
REMARK  194  A    between atoms: _471  and  _474
REMARK  195  A    between atoms: _477  and  _479
REMARK  196  A    between atoms: _479  and  _480
REMARK  197  A    between atoms: _479  and  _482
REMARK  198  A    between atoms: _482  and  _483
REMARK  199  A    between atoms: _487  and  _488
REMARK  200  A    between atoms: _493  and  _495
REMARK  201  A    between atoms: _495  and  _496
REMARK  202  A    between atoms: _495  and  _498
REMARK  203  A    between atoms: _498  and  _499
REMARK  204  A    between atoms: _505  and  _506
REMARK  205  A    between atoms: _511  and  _513
REMARK  206  A    between atoms: _513  and  _514
REMARK  207  A    between atoms: _513  and  _516
REMARK  208  A    between atoms: _519  and  _521
REMARK  209  A    between atoms: _521  and  _522
REMARK  210  A    between atoms: _521  and  _524
REMARK  211  A    between atoms: _524  and  _525
REMARK  212  A    between atoms: _530  and  _532
REMARK  213  A    between atoms: _532  and  _533
REMARK  214  A    between atoms: _532  and  _535
REMARK  215  A    between atoms: _535  and  _536
REMARK  216  A    between atoms: _539  and  _541
REMARK  217  A    between atoms: _541  and  _542
REMARK  218  A    between atoms: _541  and  _544
REMARK  219  A    between atoms: _544  and  _545
REMARK  220  A    between atoms: _548  and  _550
REMARK  221  A    between atoms: _550  and  _551
REMARK  222  A    between atoms: _553  and  _555
REMARK  223  A    between atoms: _555  and  _556
REMARK  224  A    between atoms: _555  and  _558
REMARK  225  A    between atoms: _558  and  _559
REMARK  226  A    between atoms: _559  and  _560
REMARK  227  A    between atoms: _560  and  _561
REMARK  228  A    between atoms: _570  and  _572
REMARK  229  A    between atoms: _572  and  _573
REMARK  230  A    between atoms: _572  and  _575
REMARK  231  A    between atoms: _575  and  _576
REMARK                            x       y       z     vdW  Elec       q    Type
REMARK                         _______ _______ _______ _____ _____    ______ ____
ROOT
ATOM      1  O   HOH     1      19.584   5.302  20.551  0.00  0.00    +0.000 OA
ENDROOT
TORSDOF 0
REMARK  Name = ../refined-set-2016/2fgv/2fgv_pocket.pdb
REMARK  231 active torsions:
REMARK  status: ('A' for Active; 'I' for Inactive)
REMARK    1  A    between atoms: _1  and  _3
REMARK    2  A    between atoms: _3  and  _4
REMARK    3  A    between atoms: _3  and  _6
REMARK    4  A    between atoms: _6  and  _7
REMARK    5  A    between atoms: _7  and  _8
REMARK    6  A    between atoms: _8  and  _9
REMARK    7  A    between atoms: _18  and  _20
REMARK    8  A    between atoms: _20  and  _21
REMARK    9  A    between atoms: _20  and  _23
REMARK   10  A    between atoms: _23  and  _24
REMARK   11  A    between atoms: _27  and  _29
REMARK   12  A    between atoms: _29  and  _30
REMARK   13  A    between atoms: _29  and  _32
REMARK   14  A    between atoms: _32  and  _33
REMARK   15  A    between atoms: _36  and  _38
REMARK   16  A    between atoms: _38  and  _39
REMARK   17  A    between atoms: _38  and  _41
REMARK   18  A    between atoms: _41  and  _42
REMARK   19  A    between atoms: _45  and  _47
REMARK   20  A    between atoms: _47  and  _48
REMARK   21  A    between atoms: _47  and  _50
REMARK   22  A    between atoms: _50  and  _51
REMARK   23  A    between atoms: _54  and  _56
REMARK   24  A    between atoms: _56  and  _57
REMARK   25  A    between atoms: _59  and  _61
REMARK   26  A    between atoms: _61  and  _62
REMARK   27  A    between atoms: _65  and  _67
REMARK   28  A    between atoms: _67  and  _68
REMARK   29  A    between atoms: _67  and  _70
REMARK   30  A    between atoms: _70  and  _71
REMARK   31  A    between atoms: _74  and  _76
REMARK   32  A    between atoms: _76  and  _77
REMARK   33  A    between atoms: _76  and  _79
REMARK   34  A    between atoms: _79  and  _80
REMARK   35  A    between atoms: _83  and  _85
REMARK   36  A    between atoms: _85  and  _86
REMARK   37  A    between atoms: _85  and  _88
REMARK   38  A    between atoms: _88  and  _89
REMARK   39  A    between atoms: _92  and  _94
REMARK   40  A    between atoms: _94  and  _95
REMARK   41  A    between atoms: _94  and  _97
REMARK   42  A    between atoms: _100  and  _102
REMARK   43  A    between atoms: _102  and  _103
REMARK   44  A    between atoms: _102  and  _105
REMARK   45  A    between atoms: _105  and  _106
REMARK   46  A    between atoms: _106  and  _107
REMARK   47  A    between atoms: _107  and  _108
REMARK   48  A    between atoms: _108  and  _109
REMARK   49  A    between atoms: _113  and  _115
REMARK   50  A    between atoms: _115  and  _116
REMARK   51  A    between atoms: _115  and  _118
REMARK   52  A    between atoms: _118  and  _119
REMARK   53  A    between atoms: _119  and  _120
REMARK   54  A    between atoms: _122  and  _124
REMARK   55  A    between atoms: _124  and  _125
REMARK   56  A    between atoms: _124  and  _127
REMARK   57  A    between atoms: _127  and  _128
REMARK   58  A    between atoms: _131  and  _133
REMARK   59  A    between atoms: _133  and  _134
REMARK   60  A    between atoms: _136  and  _138
REMARK   61  A    between atoms: _138  and  _139
REMARK   62  A    between atoms: _141  and  _143
REMARK   63  A    between atoms: _143  and  _144
REMARK   64  A    between atoms: _143  and  _146
REMARK   65  A    between atoms: _146  and  _147
REMARK   66  A    between atoms: _150  and  _152
REMARK   67  A    between atoms: _152  and  _153
REMARK   68  A    between atoms: _155  and  _157
REMARK   69  A    between atoms: _157  and  _158
REMARK   70  A    between atoms: _160  and  _162
REMARK   71  A    between atoms: _162  and  _163
REMARK   72  A    between atoms: _162  and  _165
REMARK   73  A    between atoms: _165  and  _166
REMARK   74  A    between atoms: _172  and  _174
REMARK   75  A    between atoms: _174  and  _175
REMARK   76  A    between atoms: _174  and  _177
REMARK   77  A    between atoms: _177  and  _178
REMARK   78  A    between atoms: _181  and  _183
REMARK   79  A    between atoms: _183  and  _184
REMARK   80  A    between atoms: _183  and  _186
REMARK   81  A    between atoms: _189  and  _191
REMARK   82  A    between atoms: _191  and  _192
REMARK   83  A    between atoms: _191  and  _194
REMARK   84  A    between atoms: _194  and  _195
REMARK   85  A    between atoms: _199  and  _200
REMARK   86  A    between atoms: _205  and  _207
REMARK   87  A    between atoms: _207  and  _208
REMARK   88  A    between atoms: _207  and  _210
REMARK   89  A    between atoms: _210  and  _211
REMARK   90  A    between atoms: _217  and  _218
REMARK   91  A    between atoms: _223  and  _225
REMARK   92  A    between atoms: _225  and  _226
REMARK   93  A    between atoms: _225  and  _228
REMARK   94  A    between atoms: _231  and  _233
REMARK   95  A    between atoms: _233  and  _234
REMARK   96  A    between atoms: _233  and  _236
REMARK   97  A    between atoms: _236  and  _237
REMARK   98  A    between atoms: _242  and  _244
REMARK   99  A    between atoms: _244  and  _245
REMARK  100  A    between atoms: _244  and  _247
REMARK  101  A    between atoms: _247  and  _248
REMARK  102  A    between atoms: _251  and  _253
REMARK  103  A    between atoms: _253  and  _254
REMARK  104  A    between atoms: _253  and  _256
REMARK  105  A    between atoms: _256  and  _257
REMARK  106  A    between atoms: _260  and  _262
REMARK  107  A    between atoms: _262  and  _263
REMARK  108  A    between atoms: _265  and  _267
REMARK  109  A    between atoms: _267  and  _268
REMARK  110  A    between atoms: _267  and  _270
REMARK  111  A    between atoms: _270  and  _271
REMARK  112  A    between atoms: _271  and  _272
REMARK  113  A    between atoms: _272  and  _273
REMARK  114  A    between atoms: _282  and  _284
REMARK  115  A    between atoms: _284  and  _285
REMARK  116  A    between atoms: _284  and  _287
REMARK  117  A    between atoms: _287  and  _288
REMARK  118  A    between atoms: _293  and  _295
REMARK  119  A    between atoms: _295  and  _296
REMARK  120  A    between atoms: _295  and  _298
REMARK  121  A    between atoms: _298  and  _299
REMARK  122  A    between atoms: _299  and  _300
REMARK  123  A    between atoms: _300  and  _301
REMARK  124  A    between atoms: _310  and  _312
REMARK  125  A    between atoms: _312  and  _313
REMARK  126  A    between atoms: _312  and  _315
REMARK  127  A    between atoms: _315  and  _316
REMARK  128  A    between atoms: _319  and  _321
REMARK  129  A    between atoms: _321  and  _322
REMARK  130  A    between atoms: _321  and  _324
REMARK  131  A    between atoms: _324  and  _325
REMARK  132  A    between atoms: _328  and  _330
REMARK  133  A    between atoms: _330  and  _331
REMARK  134  A    between atoms: _330  and  _333
REMARK  135  A    between atoms: _333  and  _334
REMARK  136  A    between atoms: _337  and  _339
REMARK  137  A    between atoms: _339  and  _340
REMARK  138  A    between atoms: _339  and  _342
REMARK  139  A    between atoms: _342  and  _343
REMARK  140  A    between atoms: _346  and  _348
REMARK  141  A    between atoms: _348  and  _349
REMARK  142  A    between atoms: _351  and  _353
REMARK  143  A    between atoms: _353  and  _354
REMARK  144  A    between atoms: _357  and  _359
REMARK  145  A    between atoms: _359  and  _360
REMARK  146  A    between atoms: _359  and  _362
REMARK  147  A    between atoms: _362  and  _363
REMARK  148  A    between atoms: _366  and  _368
REMARK  149  A    between atoms: _368  and  _369
REMARK  150  A    between atoms: _368  and  _371
REMARK  151  A    between atoms: _371  and  _372
REMARK  152  A    between atoms: _375  and  _377
REMARK  153  A    between atoms: _377  and  _378
REMARK  154  A    between atoms: _377  and  _380
REMARK  155  A    between atoms: _380  and  _381
REMARK  156  A    between atoms: _384  and  _386
REMARK  157  A    between atoms: _386  and  _387
REMARK  158  A    between atoms: _386  and  _389
REMARK  159  A    between atoms: _392  and  _394
REMARK  160  A    between atoms: _394  and  _395
REMARK  161  A    between atoms: _394  and  _397
REMARK  162  A    between atoms: _397  and  _398
REMARK  163  A    between atoms: _401  and  _403
REMARK  164  A    between atoms: _403  and  _404
REMARK  165  A    between atoms: _403  and  _406
REMARK  166  A    between atoms: _406  and  _407
REMARK  167  A    between atoms: _407  and  _408
REMARK  168  A    between atoms: _410  and  _412
REMARK  169  A    between atoms: _412  and  _413
REMARK  170  A    between atoms: _412  and  _415
REMARK  171  A    between atoms: _415  and  _416
REMARK  172  A    between atoms: _419  and  _421
REMARK  173  A    between atoms: _421  and  _422
REMARK  174  A    between atoms: _424  and  _426
REMARK  175  A    between atoms: _426  and  _427
REMARK  176  A    between atoms: _429  and  _431
REMARK  177  A    between atoms: _431  and  _432
REMARK  178  A    between atoms: _431  and  _434
REMARK  179  A    between atoms: _434  and  _435
REMARK  180  A    between atoms: _438  and  _440
REMARK  181  A    between atoms: _440  and  _441
REMARK  182  A    between atoms: _443  and  _445
REMARK  183  A    between atoms: _445  and  _446
REMARK  184  A    between atoms: _448  and  _450
REMARK  185  A    between atoms: _450  and  _451
REMARK  186  A    between atoms: _450  and  _453
REMARK  187  A    between atoms: _453  and  _454
REMARK  188  A    between atoms: _460  and  _462
REMARK  189  A    between atoms: _462  and  _463
REMARK  190  A    between atoms: _462  and  _465
REMARK  191  A    between atoms: _465  and  _466
REMARK  192  A    between atoms: _469  and  _471
REMARK  193  A    between atoms: _471  and  _472
REMARK  194  A    between atoms: _471  and  _474
REMARK  195  A    between atoms: _477  and  _479
REMARK  196  A    between atoms: _479  and  _480
REMARK  197  A    between atoms: _479  and  _482
REMARK  198  A    between atoms: _482  and  _483
REMARK  199  A    between atoms: _487  and  _488
REMARK  200  A    between atoms: _493  and  _495
REMARK  201  A    between atoms: _495  and  _496
REMARK  202  A    between atoms: _495  and  _498
REMARK  203  A    between atoms: _498  and  _499
REMARK  204  A    between atoms: _505  and  _506
REMARK  205  A    between atoms: _511  and  _513
REMARK  206  A    between atoms: _513  and  _514
REMARK  207  A    between atoms: _513  and  _516
REMARK  208  A    between atoms: _519  and  _521
REMARK  209  A    between atoms: _521  and  _522
REMARK  210  A    between atoms: _521  and  _524
REMARK  211  A    between atoms: _524  and  _525
REMARK  212  A    between atoms: _530  and  _532
REMARK  213  A    between atoms: _532  and  _533
REMARK  214  A    between atoms: _532  and  _535
REMARK  215  A    between atoms: _535  and  _536
REMARK  216  A    between atoms: _539  and  _541
REMARK  217  A    between atoms: _541  and  _542
REMARK  218  A    between atoms: _541  and  _544
REMARK  219  A    between atoms: _544  and  _545
REMARK  220  A    between atoms: _548  and  _550
REMARK  221  A    between atoms: _550  and  _551
REMARK  222  A    between atoms: _553  and  _555
REMARK  223  A    between atoms: _555  and  _556
REMARK  224  A    between atoms: _555  and  _558
REMARK  225  A    between atoms: _558  and  _559
REMARK  226  A    between atoms: _559  and  _560
REMARK  227  A    between atoms: _560  and  _561
REMARK  228  A    between atoms: _570  and  _572
REMARK  229  A    between atoms: _572  and  _573
REMARK  230  A    between atoms: _572  and  _575
REMARK  231  A    between atoms: _575  and  _576
REMARK                            x       y       z     vdW  Elec       q    Type
REMARK                         _______ _______ _______ _____ _____    ______ ____
ROOT
ATOM      1  O   HOH     1      21.786   3.650  21.730  0.00  0.00    +0.000 OA
ENDROOT
TORSDOF 0
REMARK  Name = ../refined-set-2016/2fgv/2fgv_pocket.pdb
REMARK  231 active torsions:
REMARK  status: ('A' for Active; 'I' for Inactive)
REMARK    1  A    between atoms: _1  and  _3
REMARK    2  A    between atoms: _3  and  _4
REMARK    3  A    between atoms: _3  and  _6
REMARK    4  A    between atoms: _6  and  _7
REMARK    5  A    between atoms: _7  and  _8
REMARK    6  A    between atoms: _8  and  _9
REMARK    7  A    between atoms: _18  and  _20
REMARK    8  A    between atoms: _20  and  _21
REMARK    9  A    between atoms: _20  and  _23
REMARK   10  A    between atoms: _23  and  _24
REMARK   11  A    between atoms: _27  and  _29
REMARK   12  A    between atoms: _29  and  _30
REMARK   13  A    between atoms: _29  and  _32
REMARK   14  A    between atoms: _32  and  _33
REMARK   15  A    between atoms: _36  and  _38
REMARK   16  A    between atoms: _38  and  _39
REMARK   17  A    between atoms: _38  and  _41
REMARK   18  A    between atoms: _41  and  _42
REMARK   19  A    between atoms: _45  and  _47
REMARK   20  A    between atoms: _47  and  _48
REMARK   21  A    between atoms: _47  and  _50
REMARK   22  A    between atoms: _50  and  _51
REMARK   23  A    between atoms: _54  and  _56
REMARK   24  A    between atoms: _56  and  _57
REMARK   25  A    between atoms: _59  and  _61
REMARK   26  A    between atoms: _61  and  _62
REMARK   27  A    between atoms: _65  and  _67
REMARK   28  A    between atoms: _67  and  _68
REMARK   29  A    between atoms: _67  and  _70
REMARK   30  A    between atoms: _70  and  _71
REMARK   31  A    between atoms: _74  and  _76
REMARK   32  A    between atoms: _76  and  _77
REMARK   33  A    between atoms: _76  and  _79
REMARK   34  A    between atoms: _79  and  _80
REMARK   35  A    between atoms: _83  and  _85
REMARK   36  A    between atoms: _85  and  _86
REMARK   37  A    between atoms: _85  and  _88
REMARK   38  A    between atoms: _88  and  _89
REMARK   39  A    between atoms: _92  and  _94
REMARK   40  A    between atoms: _94  and  _95
REMARK   41  A    between atoms: _94  and  _97
REMARK   42  A    between atoms: _100  and  _102
REMARK   43  A    between atoms: _102  and  _103
REMARK   44  A    between atoms: _102  and  _105
REMARK   45  A    between atoms: _105  and  _106
REMARK   46  A    between atoms: _106  and  _107
REMARK   47  A    between atoms: _107  and  _108
REMARK   48  A    between atoms: _108  and  _109
REMARK   49  A    between atoms: _113  and  _115
REMARK   50  A    between atoms: _115  and  _116
REMARK   51  A    between atoms: _115  and  _118
REMARK   52  A    between atoms: _118  and  _119
REMARK   53  A    between atoms: _119  and  _120
REMARK   54  A    between atoms: _122  and  _124
REMARK   55  A    between atoms: _124  and  _125
REMARK   56  A    between atoms: _124  and  _127
REMARK   57  A    between atoms: _127  and  _128
REMARK   58  A    between atoms: _131  and  _133
REMARK   59  A    between atoms: _133  and  _134
REMARK   60  A    between atoms: _136  and  _138
REMARK   61  A    between atoms: _138  and  _139
REMARK   62  A    between atoms: _141  and  _143
REMARK   63  A    between atoms: _143  and  _144
REMARK   64  A    between atoms: _143  and  _146
REMARK   65  A    between atoms: _146  and  _147
REMARK   66  A    between atoms: _150  and  _152
REMARK   67  A    between atoms: _152  and  _153
REMARK   68  A    between atoms: _155  and  _157
REMARK   69  A    between atoms: _157  and  _158
REMARK   70  A    between atoms: _160  and  _162
REMARK   71  A    between atoms: _162  and  _163
REMARK   72  A    between atoms: _162  and  _165
REMARK   73  A    between atoms: _165  and  _166
REMARK   74  A    between atoms: _172  and  _174
REMARK   75  A    between atoms: _174  and  _175
REMARK   76  A    between atoms: _174  and  _177
REMARK   77  A    between atoms: _177  and  _178
REMARK   78  A    between atoms: _181  and  _183
REMARK   79  A    between atoms: _183  and  _184
REMARK   80  A    between atoms: _183  and  _186
REMARK   81  A    between atoms: _189  and  _191
REMARK   82  A    between atoms: _191  and  _192
REMARK   83  A    between atoms: _191  and  _194
REMARK   84  A    between atoms: _194  and  _195
REMARK   85  A    between atoms: _199  and  _200
REMARK   86  A    between atoms: _205  and  _207
REMARK   87  A    between atoms: _207  and  _208
REMARK   88  A    between atoms: _207  and  _210
REMARK   89  A    between atoms: _210  and  _211
REMARK   90  A    between atoms: _217  and  _218
REMARK   91  A    between atoms: _223  and  _225
REMARK   92  A    between atoms: _225  and  _226
REMARK   93  A    between atoms: _225  and  _228
REMARK   94  A    between atoms: _231  and  _233
REMARK   95  A    between atoms: _233  and  _234
REMARK   96  A    between atoms: _233  and  _236
REMARK   97  A    between atoms: _236  and  _237
REMARK   98  A    between atoms: _242  and  _244
REMARK   99  A    between atoms: _244  and  _245
REMARK  100  A    between atoms: _244  and  _247
REMARK  101  A    between atoms: _247  and  _248
REMARK  102  A    between atoms: _251  and  _253
REMARK  103  A    between atoms: _253  and  _254
REMARK  104  A    between atoms: _253  and  _256
REMARK  105  A    between atoms: _256  and  _257
REMARK  106  A    between atoms: _260  and  _262
REMARK  107  A    between atoms: _262  and  _263
REMARK  108  A    between atoms: _265  and  _267
REMARK  109  A    between atoms: _267  and  _268
REMARK  110  A    between atoms: _267  and  _270
REMARK  111  A    between atoms: _270  and  _271
REMARK  112  A    between atoms: _271  and  _272
REMARK  113  A    between atoms: _272  and  _273
REMARK  114  A    between atoms: _282  and  _284
REMARK  115  A    between atoms: _284  and  _285
REMARK  116  A    between atoms: _284  and  _287
REMARK  117  A    between atoms: _287  and  _288
REMARK  118  A    between atoms: _293  and  _295
REMARK  119  A    between atoms: _295  and  _296
REMARK  120  A    between atoms: _295  and  _298
REMARK  121  A    between atoms: _298  and  _299
REMARK  122  A    between atoms: _299  and  _300
REMARK  123  A    between atoms: _300  and  _301
REMARK  124  A    between atoms: _310  and  _312
REMARK  125  A    between atoms: _312  and  _313
REMARK  126  A    between atoms: _312  and  _315
REMARK  127  A    between atoms: _315  and  _316
REMARK  128  A    between atoms: _319  and  _321
REMARK  129  A    between atoms: _321  and  _322
REMARK  130  A    between atoms: _321  and  _324
REMARK  131  A    between atoms: _324  and  _325
REMARK  132  A    between atoms: _328  and  _330
REMARK  133  A    between atoms: _330  and  _331
REMARK  134  A    between atoms: _330  and  _333
REMARK  135  A    between atoms: _333  and  _334
REMARK  136  A    between atoms: _337  and  _339
REMARK  137  A    between atoms: _339  and  _340
REMARK  138  A    between atoms: _339  and  _342
REMARK  139  A    between atoms: _342  and  _343
REMARK  140  A    between atoms: _346  and  _348
REMARK  141  A    between atoms: _348  and  _349
REMARK  142  A    between atoms: _351  and  _353
REMARK  143  A    between atoms: _353  and  _354
REMARK  144  A    between atoms: _357  and  _359
REMARK  145  A    between atoms: _359  and  _360
REMARK  146  A    between atoms: _359  and  _362
REMARK  147  A    between atoms: _362  and  _363
REMARK  148  A    between atoms: _366  and  _368
REMARK  149  A    between atoms: _368  and  _369
REMARK  150  A    between atoms: _368  and  _371
REMARK  151  A    between atoms: _371  and  _372
REMARK  152  A    between atoms: _375  and  _377
REMARK  153  A    between atoms: _377  and  _378
REMARK  154  A    between atoms: _377  and  _380
REMARK  155  A    between atoms: _380  and  _381
REMARK  156  A    between atoms: _384  and  _386
REMARK  157  A    between atoms: _386  and  _387
REMARK  158  A    between atoms: _386  and  _389
REMARK  159  A    between atoms: _392  and  _394
REMARK  160  A    between atoms: _394  and  _395
REMARK  161  A    between atoms: _394  and  _397
REMARK  162  A    between atoms: _397  and  _398
REMARK  163  A    between atoms: _401  and  _403
REMARK  164  A    between atoms: _403  and  _404
REMARK  165  A    between atoms: _403  and  _406
REMARK  166  A    between atoms: _406  and  _407
REMARK  167  A    between atoms: _407  and  _408
REMARK  168  A    between atoms: _410  and  _412
REMARK  169  A    between atoms: _412  and  _413
REMARK  170  A    between atoms: _412  and  _415
REMARK  171  A    between atoms: _415  and  _416
REMARK  172  A    between atoms: _419  and  _421
REMARK  173  A    between atoms: _421  and  _422
REMARK  174  A    between atoms: _424  and  _426
REMARK  175  A    between atoms: _426  and  _427
REMARK  176  A    between atoms: _429  and  _431
REMARK  177  A    between atoms: _431  and  _432
REMARK  178  A    between atoms: _431  and  _434
REMARK  179  A    between atoms: _434  and  _435
REMARK  180  A    between atoms: _438  and  _440
REMARK  181  A    between atoms: _440  and  _441
REMARK  182  A    between atoms: _443  and  _445
REMARK  183  A    between atoms: _445  and  _446
REMARK  184  A    between atoms: _448  and  _450
REMARK  185  A    between atoms: _450  and  _451
REMARK  186  A    between atoms: _450  and  _453
REMARK  187  A    between atoms: _453  and  _454
REMARK  188  A    between atoms: _460  and  _462
REMARK  189  A    between atoms: _462  and  _463
REMARK  190  A    between atoms: _462  and  _465
REMARK  191  A    between atoms: _465  and  _466
REMARK  192  A    between atoms: _469  and  _471
REMARK  193  A    between atoms: _471  and  _472
REMARK  194  A    between atoms: _471  and  _474
REMARK  195  A    between atoms: _477  and  _479
REMARK  196  A    between atoms: _479  and  _480
REMARK  197  A    between atoms: _479  and  _482
REMARK  198  A    between atoms: _482  and  _483
REMARK  199  A    between atoms: _487  and  _488
REMARK  200  A    between atoms: _493  and  _495
REMARK  201  A    between atoms: _495  and  _496
REMARK  202  A    between atoms: _495  and  _498
REMARK  203  A    between atoms: _498  and  _499
REMARK  204  A    between atoms: _505  and  _506
REMARK  205  A    between atoms: _511  and  _513
REMARK  206  A    between atoms: _513  and  _514
REMARK  207  A    between atoms: _513  and  _516
REMARK  208  A    between atoms: _519  and  _521
REMARK  209  A    between atoms: _521  and  _522
REMARK  210  A    between atoms: _521  and  _524
REMARK  211  A    between atoms: _524  and  _525
REMARK  212  A    between atoms: _530  and  _532
REMARK  213  A    between atoms: _532  and  _533
REMARK  214  A    between atoms: _532  and  _535
REMARK  215  A    between atoms: _535  and  _536
REMARK  216  A    between atoms: _539  and  _541
REMARK  217  A    between atoms: _541  and  _542
REMARK  218  A    between atoms: _541  and  _544
REMARK  219  A    between atoms: _544  and  _545
REMARK  220  A    between atoms: _548  and  _550
REMARK  221  A    between atoms: _550  and  _551
REMARK  222  A    between atoms: _553  and  _555
REMARK  223  A    between atoms: _555  and  _556
REMARK  224  A    between atoms: _555  and  _558
REMARK  225  A    between atoms: _558  and  _559
REMARK  226  A    between atoms: _559  and  _560
REMARK  227  A    between atoms: _560  and  _561
REMARK  228  A    between atoms: _570  and  _572
REMARK  229  A    between atoms: _572  and  _573
REMARK  230  A    between atoms: _572  and  _575
REMARK  231  A    between atoms: _575  and  _576
REMARK                            x       y       z     vdW  Elec       q    Type
REMARK                         _______ _______ _______ _____ _____    ______ ____
ROOT
ATOM      1  O   HOH     1      18.110   2.870  24.306  0.00  0.00    +0.000 OA
ENDROOT
TORSDOF 0
REMARK  Name = ../refined-set-2016/2fgv/2fgv_pocket.pdb
REMARK  231 active torsions:
REMARK  status: ('A' for Active; 'I' for Inactive)
REMARK    1  A    between atoms: _1  and  _3
REMARK    2  A    between atoms: _3  and  _4
REMARK    3  A    between atoms: _3  and  _6
REMARK    4  A    between atoms: _6  and  _7
REMARK    5  A    between atoms: _7  and  _8
REMARK    6  A    between atoms: _8  and  _9
REMARK    7  A    between atoms: _18  and  _20
REMARK    8  A    between atoms: _20  and  _21
REMARK    9  A    between atoms: _20  and  _23
REMARK   10  A    between atoms: _23  and  _24
REMARK   11  A    between atoms: _27  and  _29
REMARK   12  A    between atoms: _29  and  _30
REMARK   13  A    between atoms: _29  and  _32
REMARK   14  A    between atoms: _32  and  _33
REMARK   15  A    between atoms: _36  and  _38
REMARK   16  A    between atoms: _38  and  _39
REMARK   17  A    between atoms: _38  and  _41
REMARK   18  A    between atoms: _41  and  _42
REMARK   19  A    between atoms: _45  and  _47
REMARK   20  A    between atoms: _47  and  _48
REMARK   21  A    between atoms: _47  and  _50
REMARK   22  A    between atoms: _50  and  _51
REMARK   23  A    between atoms: _54  and  _56
REMARK   24  A    between atoms: _56  and  _57
REMARK   25  A    between atoms: _59  and  _61
REMARK   26  A    between atoms: _61  and  _62
REMARK   27  A    between atoms: _65  and  _67
REMARK   28  A    between atoms: _67  and  _68
REMARK   29  A    between atoms: _67  and  _70
REMARK   30  A    between atoms: _70  and  _71
REMARK   31  A    between atoms: _74  and  _76
REMARK   32  A    between atoms: _76  and  _77
REMARK   33  A    between atoms: _76  and  _79
REMARK   34  A    between atoms: _79  and  _80
REMARK   35  A    between atoms: _83  and  _85
REMARK   36  A    between atoms: _85  and  _86
REMARK   37  A    between atoms: _85  and  _88
REMARK   38  A    between atoms: _88  and  _89
REMARK   39  A    between atoms: _92  and  _94
REMARK   40  A    between atoms: _94  and  _95
REMARK   41  A    between atoms: _94  and  _97
REMARK   42  A    between atoms: _100  and  _102
REMARK   43  A    between atoms: _102  and  _103
REMARK   44  A    between atoms: _102  and  _105
REMARK   45  A    between atoms: _105  and  _106
REMARK   46  A    between atoms: _106  and  _107
REMARK   47  A    between atoms: _107  and  _108
REMARK   48  A    between atoms: _108  and  _109
REMARK   49  A    between atoms: _113  and  _115
REMARK   50  A    between atoms: _115  and  _116
REMARK   51  A    between atoms: _115  and  _118
REMARK   52  A    between atoms: _118  and  _119
REMARK   53  A    between atoms: _119  and  _120
REMARK   54  A    between atoms: _122  and  _124
REMARK   55  A    between atoms: _124  and  _125
REMARK   56  A    between atoms: _124  and  _127
REMARK   57  A    between atoms: _127  and  _128
REMARK   58  A    between atoms: _131  and  _133
REMARK   59  A    between atoms: _133  and  _134
REMARK   60  A    between atoms: _136  and  _138
REMARK   61  A    between atoms: _138  and  _139
REMARK   62  A    between atoms: _141  and  _143
REMARK   63  A    between atoms: _143  and  _144
REMARK   64  A    between atoms: _143  and  _146
REMARK   65  A    between atoms: _146  and  _147
REMARK   66  A    between atoms: _150  and  _152
REMARK   67  A    between atoms: _152  and  _153
REMARK   68  A    between atoms: _155  and  _157
REMARK   69  A    between atoms: _157  and  _158
REMARK   70  A    between atoms: _160  and  _162
REMARK   71  A    between atoms: _162  and  _163
REMARK   72  A    between atoms: _162  and  _165
REMARK   73  A    between atoms: _165  and  _166
REMARK   74  A    between atoms: _172  and  _174
REMARK   75  A    between atoms: _174  and  _175
REMARK   76  A    between atoms: _174  and  _177
REMARK   77  A    between atoms: _177  and  _178
REMARK   78  A    between atoms: _181  and  _183
REMARK   79  A    between atoms: _183  and  _184
REMARK   80  A    between atoms: _183  and  _186
REMARK   81  A    between atoms: _189  and  _191
REMARK   82  A    between atoms: _191  and  _192
REMARK   83  A    between atoms: _191  and  _194
REMARK   84  A    between atoms: _194  and  _195
REMARK   85  A    between atoms: _199  and  _200
REMARK   86  A    between atoms: _205  and  _207
REMARK   87  A    between atoms: _207  and  _208
REMARK   88  A    between atoms: _207  and  _210
REMARK   89  A    between atoms: _210  and  _211
REMARK   90  A    between atoms: _217  and  _218
REMARK   91  A    between atoms: _223  and  _225
REMARK   92  A    between atoms: _225  and  _226
REMARK   93  A    between atoms: _225  and  _228
REMARK   94  A    between atoms: _231  and  _233
REMARK   95  A    between atoms: _233  and  _234
REMARK   96  A    between atoms: _233  and  _236
REMARK   97  A    between atoms: _236  and  _237
REMARK   98  A    between atoms: _242  and  _244
REMARK   99  A    between atoms: _244  and  _245
REMARK  100  A    between atoms: _244  and  _247
REMARK  101  A    between atoms: _247  and  _248
REMARK  102  A    between atoms: _251  and  _253
REMARK  103  A    between atoms: _253  and  _254
REMARK  104  A    between atoms: _253  and  _256
REMARK  105  A    between atoms: _256  and  _257
REMARK  106  A    between atoms: _260  and  _262
REMARK  107  A    between atoms: _262  and  _263
REMARK  108  A    between atoms: _265  and  _267
REMARK  109  A    between atoms: _267  and  _268
REMARK  110  A    between atoms: _267  and  _270
REMARK  111  A    between atoms: _270  and  _271
REMARK  112  A    between atoms: _271  and  _272
REMARK  113  A    between atoms: _272  and  _273
REMARK  114  A    between atoms: _282  and  _284
REMARK  115  A    between atoms: _284  and  _285
REMARK  116  A    between atoms: _284  and  _287
REMARK  117  A    between atoms: _287  and  _288
REMARK  118  A    between atoms: _293  and  _295
REMARK  119  A    between atoms: _295  and  _296
REMARK  120  A    between atoms: _295  and  _298
REMARK  121  A    between atoms: _298  and  _299
REMARK  122  A    between atoms: _299  and  _300
REMARK  123  A    between atoms: _300  and  _301
REMARK  124  A    between atoms: _310  and  _312
REMARK  125  A    between atoms: _312  and  _313
REMARK  126  A    between atoms: _312  and  _315
REMARK  127  A    between atoms: _315  and  _316
REMARK  128  A    between atoms: _319  and  _321
REMARK  129  A    between atoms: _321  and  _322
REMARK  130  A    between atoms: _321  and  _324
REMARK  131  A    between atoms: _324  and  _325
REMARK  132  A    between atoms: _328  and  _330
REMARK  133  A    between atoms: _330  and  _331
REMARK  134  A    between atoms: _330  and  _333
REMARK  135  A    between atoms: _333  and  _334
REMARK  136  A    between atoms: _337  and  _339
REMARK  137  A    between atoms: _339  and  _340
REMARK  138  A    between atoms: _339  and  _342
REMARK  139  A    between atoms: _342  and  _343
REMARK  140  A    between atoms: _346  and  _348
REMARK  141  A    between atoms: _348  and  _349
REMARK  142  A    between atoms: _351  and  _353
REMARK  143  A    between atoms: _353  and  _354
REMARK  144  A    between atoms: _357  and  _359
REMARK  145  A    between atoms: _359  and  _360
REMARK  146  A    between atoms: _359  and  _362
REMARK  147  A    between atoms: _362  and  _363
REMARK  148  A    between atoms: _366  and  _368
REMARK  149  A    between atoms: _368  and  _369
REMARK  150  A    between atoms: _368  and  _371
REMARK  151  A    between atoms: _371  and  _372
REMARK  152  A    between atoms: _375  and  _377
REMARK  153  A    between atoms: _377  and  _378
REMARK  154  A    between atoms: _377  and  _380
REMARK  155  A    between atoms: _380  and  _381
REMARK  156  A    between atoms: _384  and  _386
REMARK  157  A    between atoms: _386  and  _387
REMARK  158  A    between atoms: _386  and  _389
REMARK  159  A    between atoms: _392  and  _394
REMARK  160  A    between atoms: _394  and  _395
REMARK  161  A    between atoms: _394  and  _397
REMARK  162  A    between atoms: _397  and  _398
REMARK  163  A    between atoms: _401  and  _403
REMARK  164  A    between atoms: _403  and  _404
REMARK  165  A    between atoms: _403  and  _406
REMARK  166  A    between atoms: _406  and  _407
REMARK  167  A    between atoms: _407  and  _408
REMARK  168  A    between atoms: _410  and  _412
REMARK  169  A    between atoms: _412  and  _413
REMARK  170  A    between atoms: _412  and  _415
REMARK  171  A    between atoms: _415  and  _416
REMARK  172  A    between atoms: _419  and  _421
REMARK  173  A    between atoms: _421  and  _422
REMARK  174  A    between atoms: _424  and  _426
REMARK  175  A    between atoms: _426  and  _427
REMARK  176  A    between atoms: _429  and  _431
REMARK  177  A    between atoms: _431  and  _432
REMARK  178  A    between atoms: _431  and  _434
REMARK  179  A    between atoms: _434  and  _435
REMARK  180  A    between atoms: _438  and  _440
REMARK  181  A    between atoms: _440  and  _441
REMARK  182  A    between atoms: _443  and  _445
REMARK  183  A    between atoms: _445  and  _446
REMARK  184  A    between atoms: _448  and  _450
REMARK  185  A    between atoms: _450  and  _451
REMARK  186  A    between atoms: _450  and  _453
REMARK  187  A    between atoms: _453  and  _454
REMARK  188  A    between atoms: _460  and  _462
REMARK  189  A    between atoms: _462  and  _463
REMARK  190  A    between atoms: _462  and  _465
REMARK  191  A    between atoms: _465  and  _466
REMARK  192  A    between atoms: _469  and  _471
REMARK  193  A    between atoms: _471  and  _472
REMARK  194  A    between atoms: _471  and  _474
REMARK  195  A    between atoms: _477  and  _479
REMARK  196  A    between atoms: _479  and  _480
REMARK  197  A    between atoms: _479  and  _482
REMARK  198  A    between atoms: _482  and  _483
REMARK  199  A    between atoms: _487  and  _488
REMARK  200  A    between atoms: _493  and  _495
REMARK  201  A    between atoms: _495  and  _496
REMARK  202  A    between atoms: _495  and  _498
REMARK  203  A    between atoms: _498  and  _499
REMARK  204  A    between atoms: _505  and  _506
REMARK  205  A    between atoms: _511  and  _513
REMARK  206  A    between atoms: _513  and  _514
REMARK  207  A    between atoms: _513  and  _516
REMARK  208  A    between atoms: _519  and  _521
REMARK  209  A    between atoms: _521  and  _522
REMARK  210  A    between atoms: _521  and  _524
REMARK  211  A    between atoms: _524  and  _525
REMARK  212  A    between atoms: _530  and  _532
REMARK  213  A    between atoms: _532  and  _533
REMARK  214  A    between atoms: _532  and  _535
REMARK  215  A    between atoms: _535  and  _536
REMARK  216  A    between atoms: _539  and  _541
REMARK  217  A    between atoms: _541  and  _542
REMARK  218  A    between atoms: _541  and  _544
REMARK  219  A    between atoms: _544  and  _545
REMARK  220  A    between atoms: _548  and  _550
REMARK  221  A    between atoms: _550  and  _551
REMARK  222  A    between atoms: _553  and  _555
REMARK  223  A    between atoms: _555  and  _556
REMARK  224  A    between atoms: _555  and  _558
REMARK  225  A    between atoms: _558  and  _559
REMARK  226  A    between atoms: _559  and  _560
REMARK  227  A    between atoms: _560  and  _561
REMARK  228  A    between atoms: _570  and  _572
REMARK  229  A    between atoms: _572  and  _573
REMARK  230  A    between atoms: _572  and  _575
REMARK  231  A    between atoms: _575  and  _576
REMARK                            x       y       z     vdW  Elec       q    Type
REMARK                         _______ _______ _______ _____ _____    ______ ____
ROOT
ATOM      1  O   HOH     1      18.367   0.036  24.936  0.00  0.00    +0.000 OA
ENDROOT
TORSDOF 0
REMARK  Name = ../refined-set-2016/2fgv/2fgv_pocket.pdb
REMARK  231 active torsions:
REMARK  status: ('A' for Active; 'I' for Inactive)
REMARK    1  A    between atoms: _1  and  _3
REMARK    2  A    between atoms: _3  and  _4
REMARK    3  A    between atoms: _3  and  _6
REMARK    4  A    between atoms: _6  and  _7
REMARK    5  A    between atoms: _7  and  _8
REMARK    6  A    between atoms: _8  and  _9
REMARK    7  A    between atoms: _18  and  _20
REMARK    8  A    between atoms: _20  and  _21
REMARK    9  A    between atoms: _20  and  _23
REMARK   10  A    between atoms: _23  and  _24
REMARK   11  A    between atoms: _27  and  _29
REMARK   12  A    between atoms: _29  and  _30
REMARK   13  A    between atoms: _29  and  _32
REMARK   14  A    between atoms: _32  and  _33
REMARK   15  A    between atoms: _36  and  _38
REMARK   16  A    between atoms: _38  and  _39
REMARK   17  A    between atoms: _38  and  _41
REMARK   18  A    between atoms: _41  and  _42
REMARK   19  A    between atoms: _45  and  _47
REMARK   20  A    between atoms: _47  and  _48
REMARK   21  A    between atoms: _47  and  _50
REMARK   22  A    between atoms: _50  and  _51
REMARK   23  A    between atoms: _54  and  _56
REMARK   24  A    between atoms: _56  and  _57
REMARK   25  A    between atoms: _59  and  _61
REMARK   26  A    between atoms: _61  and  _62
REMARK   27  A    between atoms: _65  and  _67
REMARK   28  A    between atoms: _67  and  _68
REMARK   29  A    between atoms: _67  and  _70
REMARK   30  A    between atoms: _70  and  _71
REMARK   31  A    between atoms: _74  and  _76
REMARK   32  A    between atoms: _76  and  _77
REMARK   33  A    between atoms: _76  and  _79
REMARK   34  A    between atoms: _79  and  _80
REMARK   35  A    between atoms: _83  and  _85
REMARK   36  A    between atoms: _85  and  _86
REMARK   37  A    between atoms: _85  and  _88
REMARK   38  A    between atoms: _88  and  _89
REMARK   39  A    between atoms: _92  and  _94
REMARK   40  A    between atoms: _94  and  _95
REMARK   41  A    between atoms: _94  and  _97
REMARK   42  A    between atoms: _100  and  _102
REMARK   43  A    between atoms: _102  and  _103
REMARK   44  A    between atoms: _102  and  _105
REMARK   45  A    between atoms: _105  and  _106
REMARK   46  A    between atoms: _106  and  _107
REMARK   47  A    between atoms: _107  and  _108
REMARK   48  A    between atoms: _108  and  _109
REMARK   49  A    between atoms: _113  and  _115
REMARK   50  A    between atoms: _115  and  _116
REMARK   51  A    between atoms: _115  and  _118
REMARK   52  A    between atoms: _118  and  _119
REMARK   53  A    between atoms: _119  and  _120
REMARK   54  A    between atoms: _122  and  _124
REMARK   55  A    between atoms: _124  and  _125
REMARK   56  A    between atoms: _124  and  _127
REMARK   57  A    between atoms: _127  and  _128
REMARK   58  A    between atoms: _131  and  _133
REMARK   59  A    between atoms: _133  and  _134
REMARK   60  A    between atoms: _136  and  _138
REMARK   61  A    between atoms: _138  and  _139
REMARK   62  A    between atoms: _141  and  _143
REMARK   63  A    between atoms: _143  and  _144
REMARK   64  A    between atoms: _143  and  _146
REMARK   65  A    between atoms: _146  and  _147
REMARK   66  A    between atoms: _150  and  _152
REMARK   67  A    between atoms: _152  and  _153
REMARK   68  A    between atoms: _155  and  _157
REMARK   69  A    between atoms: _157  and  _158
REMARK   70  A    between atoms: _160  and  _162
REMARK   71  A    between atoms: _162  and  _163
REMARK   72  A    between atoms: _162  and  _165
REMARK   73  A    between atoms: _165  and  _166
REMARK   74  A    between atoms: _172  and  _174
REMARK   75  A    between atoms: _174  and  _175
REMARK   76  A    between atoms: _174  and  _177
REMARK   77  A    between atoms: _177  and  _178
REMARK   78  A    between atoms: _181  and  _183
REMARK   79  A    between atoms: _183  and  _184
REMARK   80  A    between atoms: _183  and  _186
REMARK   81  A    between atoms: _189  and  _191
REMARK   82  A    between atoms: _191  and  _192
REMARK   83  A    between atoms: _191  and  _194
REMARK   84  A    between atoms: _194  and  _195
REMARK   85  A    between atoms: _199  and  _200
REMARK   86  A    between atoms: _205  and  _207
REMARK   87  A    between atoms: _207  and  _208
REMARK   88  A    between atoms: _207  and  _210
REMARK   89  A    between atoms: _210  and  _211
REMARK   90  A    between atoms: _217  and  _218
REMARK   91  A    between atoms: _223  and  _225
REMARK   92  A    between atoms: _225  and  _226
REMARK   93  A    between atoms: _225  and  _228
REMARK   94  A    between atoms: _231  and  _233
REMARK   95  A    between atoms: _233  and  _234
REMARK   96  A    between atoms: _233  and  _236
REMARK   97  A    between atoms: _236  and  _237
REMARK   98  A    between atoms: _242  and  _244
REMARK   99  A    between atoms: _244  and  _245
REMARK  100  A    between atoms: _244  and  _247
REMARK  101  A    between atoms: _247  and  _248
REMARK  102  A    between atoms: _251  and  _253
REMARK  103  A    between atoms: _253  and  _254
REMARK  104  A    between atoms: _253  and  _256
REMARK  105  A    between atoms: _256  and  _257
REMARK  106  A    between atoms: _260  and  _262
REMARK  107  A    between atoms: _262  and  _263
REMARK  108  A    between atoms: _265  and  _267
REMARK  109  A    between atoms: _267  and  _268
REMARK  110  A    between atoms: _267  and  _270
REMARK  111  A    between atoms: _270  and  _271
REMARK  112  A    between atoms: _271  and  _272
REMARK  113  A    between atoms: _272  and  _273
REMARK  114  A    between atoms: _282  and  _284
REMARK  115  A    between atoms: _284  and  _285
REMARK  116  A    between atoms: _284  and  _287
REMARK  117  A    between atoms: _287  and  _288
REMARK  118  A    between atoms: _293  and  _295
REMARK  119  A    between atoms: _295  and  _296
REMARK  120  A    between atoms: _295  and  _298
REMARK  121  A    between atoms: _298  and  _299
REMARK  122  A    between atoms: _299  and  _300
REMARK  123  A    between atoms: _300  and  _301
REMARK  124  A    between atoms: _310  and  _312
REMARK  125  A    between atoms: _312  and  _313
REMARK  126  A    between atoms: _312  and  _315
REMARK  127  A    between atoms: _315  and  _316
REMARK  128  A    between atoms: _319  and  _321
REMARK  129  A    between atoms: _321  and  _322
REMARK  130  A    between atoms: _321  and  _324
REMARK  131  A    between atoms: _324  and  _325
REMARK  132  A    between atoms: _328  and  _330
REMARK  133  A    between atoms: _330  and  _331
REMARK  134  A    between atoms: _330  and  _333
REMARK  135  A    between atoms: _333  and  _334
REMARK  136  A    between atoms: _337  and  _339
REMARK  137  A    between atoms: _339  and  _340
REMARK  138  A    between atoms: _339  and  _342
REMARK  139  A    between atoms: _342  and  _343
REMARK  140  A    between atoms: _346  and  _348
REMARK  141  A    between atoms: _348  and  _349
REMARK  142  A    between atoms: _351  and  _353
REMARK  143  A    between atoms: _353  and  _354
REMARK  144  A    between atoms: _357  and  _359
REMARK  145  A    between atoms: _359  and  _360
REMARK  146  A    between atoms: _359  and  _362
REMARK  147  A    between atoms: _362  and  _363
REMARK  148  A    between atoms: _366  and  _368
REMARK  149  A    between atoms: _368  and  _369
REMARK  150  A    between atoms: _368  and  _371
REMARK  151  A    between atoms: _371  and  _372
REMARK  152  A    between atoms: _375  and  _377
REMARK  153  A    between atoms: _377  and  _378
REMARK  154  A    between atoms: _377  and  _380
REMARK  155  A    between atoms: _380  and  _381
REMARK  156  A    between atoms: _384  and  _386
REMARK  157  A    between atoms: _386  and  _387
REMARK  158  A    between atoms: _386  and  _389
REMARK  159  A    between atoms: _392  and  _394
REMARK  160  A    between atoms: _394  and  _395
REMARK  161  A    between atoms: _394  and  _397
REMARK  162  A    between atoms: _397  and  _398
REMARK  163  A    between atoms: _401  and  _403
REMARK  164  A    between atoms: _403  and  _404
REMARK  165  A    between atoms: _403  and  _406
REMARK  166  A    between atoms: _406  and  _407
REMARK  167  A    between atoms: _407  and  _408
REMARK  168  A    between atoms: _410  and  _412
REMARK  169  A    between atoms: _412  and  _413
REMARK  170  A    between atoms: _412  and  _415
REMARK  171  A    between atoms: _415  and  _416
REMARK  172  A    between atoms: _419  and  _421
REMARK  173  A    between atoms: _421  and  _422
REMARK  174  A    between atoms: _424  and  _426
REMARK  175  A    between atoms: _426  and  _427
REMARK  176  A    between atoms: _429  and  _431
REMARK  177  A    between atoms: _431  and  _432
REMARK  178  A    between atoms: _431  and  _434
REMARK  179  A    between atoms: _434  and  _435
REMARK  180  A    between atoms: _438  and  _440
REMARK  181  A    between atoms: _440  and  _441
REMARK  182  A    between atoms: _443  and  _445
REMARK  183  A    between atoms: _445  and  _446
REMARK  184  A    between atoms: _448  and  _450
REMARK  185  A    between atoms: _450  and  _451
REMARK  186  A    between atoms: _450  and  _453
REMARK  187  A    between atoms: _453  and  _454
REMARK  188  A    between atoms: _460  and  _462
REMARK  189  A    between atoms: _462  and  _463
REMARK  190  A    between atoms: _462  and  _465
REMARK  191  A    between atoms: _465  and  _466
REMARK  192  A    between atoms: _469  and  _471
REMARK  193  A    between atoms: _471  and  _472
REMARK  194  A    between atoms: _471  and  _474
REMARK  195  A    between atoms: _477  and  _479
REMARK  196  A    between atoms: _479  and  _480
REMARK  197  A    between atoms: _479  and  _482
REMARK  198  A    between atoms: _482  and  _483
REMARK  199  A    between atoms: _487  and  _488
REMARK  200  A    between atoms: _493  and  _495
REMARK  201  A    between atoms: _495  and  _496
REMARK  202  A    between atoms: _495  and  _498
REMARK  203  A    between atoms: _498  and  _499
REMARK  204  A    between atoms: _505  and  _506
REMARK  205  A    between atoms: _511  and  _513
REMARK  206  A    between atoms: _513  and  _514
REMARK  207  A    between atoms: _513  and  _516
REMARK  208  A    between atoms: _519  and  _521
REMARK  209  A    between atoms: _521  and  _522
REMARK  210  A    between atoms: _521  and  _524
REMARK  211  A    between atoms: _524  and  _525
REMARK  212  A    between atoms: _530  and  _532
REMARK  213  A    between atoms: _532  and  _533
REMARK  214  A    between atoms: _532  and  _535
REMARK  215  A    between atoms: _535  and  _536
REMARK  216  A    between atoms: _539  and  _541
REMARK  217  A    between atoms: _541  and  _542
REMARK  218  A    between atoms: _541  and  _544
REMARK  219  A    between atoms: _544  and  _545
REMARK  220  A    between atoms: _548  and  _550
REMARK  221  A    between atoms: _550  and  _551
REMARK  222  A    between atoms: _553  and  _555
REMARK  223  A    between atoms: _555  and  _556
REMARK  224  A    between atoms: _555  and  _558
REMARK  225  A    between atoms: _558  and  _559
REMARK  226  A    between atoms: _559  and  _560
REMARK  227  A    between atoms: _560  and  _561
REMARK  228  A    between atoms: _570  and  _572
REMARK  229  A    between atoms: _572  and  _573
REMARK  230  A    between atoms: _572  and  _575
REMARK  231  A    between atoms: _575  and  _576
REMARK                            x       y       z     vdW  Elec       q    Type
REMARK                         _______ _______ _______ _____ _____    ______ ____
ROOT
ATOM      1  O   HOH     1      13.986  -3.084  24.732  0.00  0.00    +0.000 OA
ENDROOT
TORSDOF 0
REMARK  Name = ../refined-set-2016/2fgv/2fgv_pocket.pdb
REMARK  231 active torsions:
REMARK  status: ('A' for Active; 'I' for Inactive)
REMARK    1  A    between atoms: _1  and  _3
REMARK    2  A    between atoms: _3  and  _4
REMARK    3  A    between atoms: _3  and  _6
REMARK    4  A    between atoms: _6  and  _7
REMARK    5  A    between atoms: _7  and  _8
REMARK    6  A    between atoms: _8  and  _9
REMARK    7  A    between atoms: _18  and  _20
REMARK    8  A    between atoms: _20  and  _21
REMARK    9  A    between atoms: _20  and  _23
REMARK   10  A    between atoms: _23  and  _24
REMARK   11  A    between atoms: _27  and  _29
REMARK   12  A    between atoms: _29  and  _30
REMARK   13  A    between atoms: _29  and  _32
REMARK   14  A    between atoms: _32  and  _33
REMARK   15  A    between atoms: _36  and  _38
REMARK   16  A    between atoms: _38  and  _39
REMARK   17  A    between atoms: _38  and  _41
REMARK   18  A    between atoms: _41  and  _42
REMARK   19  A    between atoms: _45  and  _47
REMARK   20  A    between atoms: _47  and  _48
REMARK   21  A    between atoms: _47  and  _50
REMARK   22  A    between atoms: _50  and  _51
REMARK   23  A    between atoms: _54  and  _56
REMARK   24  A    between atoms: _56  and  _57
REMARK   25  A    between atoms: _59  and  _61
REMARK   26  A    between atoms: _61  and  _62
REMARK   27  A    between atoms: _65  and  _67
REMARK   28  A    between atoms: _67  and  _68
REMARK   29  A    between atoms: _67  and  _70
REMARK   30  A    between atoms: _70  and  _71
REMARK   31  A    between atoms: _74  and  _76
REMARK   32  A    between atoms: _76  and  _77
REMARK   33  A    between atoms: _76  and  _79
REMARK   34  A    between atoms: _79  and  _80
REMARK   35  A    between atoms: _83  and  _85
REMARK   36  A    between atoms: _85  and  _86
REMARK   37  A    between atoms: _85  and  _88
REMARK   38  A    between atoms: _88  and  _89
REMARK   39  A    between atoms: _92  and  _94
REMARK   40  A    between atoms: _94  and  _95
REMARK   41  A    between atoms: _94  and  _97
REMARK   42  A    between atoms: _100  and  _102
REMARK   43  A    between atoms: _102  and  _103
REMARK   44  A    between atoms: _102  and  _105
REMARK   45  A    between atoms: _105  and  _106
REMARK   46  A    between atoms: _106  and  _107
REMARK   47  A    between atoms: _107  and  _108
REMARK   48  A    between atoms: _108  and  _109
REMARK   49  A    between atoms: _113  and  _115
REMARK   50  A    between atoms: _115  and  _116
REMARK   51  A    between atoms: _115  and  _118
REMARK   52  A    between atoms: _118  and  _119
REMARK   53  A    between atoms: _119  and  _120
REMARK   54  A    between atoms: _122  and  _124
REMARK   55  A    between atoms: _124  and  _125
REMARK   56  A    between atoms: _124  and  _127
REMARK   57  A    between atoms: _127  and  _128
REMARK   58  A    between atoms: _131  and  _133
REMARK   59  A    between atoms: _133  and  _134
REMARK   60  A    between atoms: _136  and  _138
REMARK   61  A    between atoms: _138  and  _139
REMARK   62  A    between atoms: _141  and  _143
REMARK   63  A    between atoms: _143  and  _144
REMARK   64  A    between atoms: _143  and  _146
REMARK   65  A    between atoms: _146  and  _147
REMARK   66  A    between atoms: _150  and  _152
REMARK   67  A    between atoms: _152  and  _153
REMARK   68  A    between atoms: _155  and  _157
REMARK   69  A    between atoms: _157  and  _158
REMARK   70  A    between atoms: _160  and  _162
REMARK   71  A    between atoms: _162  and  _163
REMARK   72  A    between atoms: _162  and  _165
REMARK   73  A    between atoms: _165  and  _166
REMARK   74  A    between atoms: _172  and  _174
REMARK   75  A    between atoms: _174  and  _175
REMARK   76  A    between atoms: _174  and  _177
REMARK   77  A    between atoms: _177  and  _178
REMARK   78  A    between atoms: _181  and  _183
REMARK   79  A    between atoms: _183  and  _184
REMARK   80  A    between atoms: _183  and  _186
REMARK   81  A    between atoms: _189  and  _191
REMARK   82  A    between atoms: _191  and  _192
REMARK   83  A    between atoms: _191  and  _194
REMARK   84  A    between atoms: _194  and  _195
REMARK   85  A    between atoms: _199  and  _200
REMARK   86  A    between atoms: _205  and  _207
REMARK   87  A    between atoms: _207  and  _208
REMARK   88  A    between atoms: _207  and  _210
REMARK   89  A    between atoms: _210  and  _211
REMARK   90  A    between atoms: _217  and  _218
REMARK   91  A    between atoms: _223  and  _225
REMARK   92  A    between atoms: _225  and  _226
REMARK   93  A    between atoms: _225  and  _228
REMARK   94  A    between atoms: _231  and  _233
REMARK   95  A    between atoms: _233  and  _234
REMARK   96  A    between atoms: _233  and  _236
REMARK   97  A    between atoms: _236  and  _237
REMARK   98  A    between atoms: _242  and  _244
REMARK   99  A    between atoms: _244  and  _245
REMARK  100  A    between atoms: _244  and  _247
REMARK  101  A    between atoms: _247  and  _248
REMARK  102  A    between atoms: _251  and  _253
REMARK  103  A    between atoms: _253  and  _254
REMARK  104  A    between atoms: _253  and  _256
REMARK  105  A    between atoms: _256  and  _257
REMARK  106  A    between atoms: _260  and  _262
REMARK  107  A    between atoms: _262  and  _263
REMARK  108  A    between atoms: _265  and  _267
REMARK  109  A    between atoms: _267  and  _268
REMARK  110  A    between atoms: _267  and  _270
REMARK  111  A    between atoms: _270  and  _271
REMARK  112  A    between atoms: _271  and  _272
REMARK  113  A    between atoms: _272  and  _273
REMARK  114  A    between atoms: _282  and  _284
REMARK  115  A    between atoms: _284  and  _285
REMARK  116  A    between atoms: _284  and  _287
REMARK  117  A    between atoms: _287  and  _288
REMARK  118  A    between atoms: _293  and  _295
REMARK  119  A    between atoms: _295  and  _296
REMARK  120  A    between atoms: _295  and  _298
REMARK  121  A    between atoms: _298  and  _299
REMARK  122  A    between atoms: _299  and  _300
REMARK  123  A    between atoms: _300  and  _301
REMARK  124  A    between atoms: _310  and  _312
REMARK  125  A    between atoms: _312  and  _313
REMARK  126  A    between atoms: _312  and  _315
REMARK  127  A    between atoms: _315  and  _316
REMARK  128  A    between atoms: _319  and  _321
REMARK  129  A    between atoms: _321  and  _322
REMARK  130  A    between atoms: _321  and  _324
REMARK  131  A    between atoms: _324  and  _325
REMARK  132  A    between atoms: _328  and  _330
REMARK  133  A    between atoms: _330  and  _331
REMARK  134  A    between atoms: _330  and  _333
REMARK  135  A    between atoms: _333  and  _334
REMARK  136  A    between atoms: _337  and  _339
REMARK  137  A    between atoms: _339  and  _340
REMARK  138  A    between atoms: _339  and  _342
REMARK  139  A    between atoms: _342  and  _343
REMARK  140  A    between atoms: _346  and  _348
REMARK  141  A    between atoms: _348  and  _349
REMARK  142  A    between atoms: _351  and  _353
REMARK  143  A    between atoms: _353  and  _354
REMARK  144  A    between atoms: _357  and  _359
REMARK  145  A    between atoms: _359  and  _360
REMARK  146  A    between atoms: _359  and  _362
REMARK  147  A    between atoms: _362  and  _363
REMARK  148  A    between atoms: _366  and  _368
REMARK  149  A    between atoms: _368  and  _369
REMARK  150  A    between atoms: _368  and  _371
REMARK  151  A    between atoms: _371  and  _372
REMARK  152  A    between atoms: _375  and  _377
REMARK  153  A    between atoms: _377  and  _378
REMARK  154  A    between atoms: _377  and  _380
REMARK  155  A    between atoms: _380  and  _381
REMARK  156  A    between atoms: _384  and  _386
REMARK  157  A    between atoms: _386  and  _387
REMARK  158  A    between atoms: _386  and  _389
REMARK  159  A    between atoms: _392  and  _394
REMARK  160  A    between atoms: _394  and  _395
REMARK  161  A    between atoms: _394  and  _397
REMARK  162  A    between atoms: _397  and  _398
REMARK  163  A    between atoms: _401  and  _403
REMARK  164  A    between atoms: _403  and  _404
REMARK  165  A    between atoms: _403  and  _406
REMARK  166  A    between atoms: _406  and  _407
REMARK  167  A    between atoms: _407  and  _408
REMARK  168  A    between atoms: _410  and  _412
REMARK  169  A    between atoms: _412  and  _413
REMARK  170  A    between atoms: _412  and  _415
REMARK  171  A    between atoms: _415  and  _416
REMARK  172  A    between atoms: _419  and  _421
REMARK  173  A    between atoms: _421  and  _422
REMARK  174  A    between atoms: _424  and  _426
REMARK  175  A    between atoms: _426  and  _427
REMARK  176  A    between atoms: _429  and  _431
REMARK  177  A    between atoms: _431  and  _432
REMARK  178  A    between atoms: _431  and  _434
REMARK  179  A    between atoms: _434  and  _435
REMARK  180  A    between atoms: _438  and  _440
REMARK  181  A    between atoms: _440  and  _441
REMARK  182  A    between atoms: _443  and  _445
REMARK  183  A    between atoms: _445  and  _446
REMARK  184  A    between atoms: _448  and  _450
REMARK  185  A    between atoms: _450  and  _451
REMARK  186  A    between atoms: _450  and  _453
REMARK  187  A    between atoms: _453  and  _454
REMARK  188  A    between atoms: _460  and  _462
REMARK  189  A    between atoms: _462  and  _463
REMARK  190  A    between atoms: _462  and  _465
REMARK  191  A    between atoms: _465  and  _466
REMARK  192  A    between atoms: _469  and  _471
REMARK  193  A    between atoms: _471  and  _472
REMARK  194  A    between atoms: _471  and  _474
REMARK  195  A    between atoms: _477  and  _479
REMARK  196  A    between atoms: _479  and  _480
REMARK  197  A    between atoms: _479  and  _482
REMARK  198  A    between atoms: _482  and  _483
REMARK  199  A    between atoms: _487  and  _488
REMARK  200  A    between atoms: _493  and  _495
REMARK  201  A    between atoms: _495  and  _496
REMARK  202  A    between atoms: _495  and  _498
REMARK  203  A    between atoms: _498  and  _499
REMARK  204  A    between atoms: _505  and  _506
REMARK  205  A    between atoms: _511  and  _513
REMARK  206  A    between atoms: _513  and  _514
REMARK  207  A    between atoms: _513  and  _516
REMARK  208  A    between atoms: _519  and  _521
REMARK  209  A    between atoms: _521  and  _522
REMARK  210  A    between atoms: _521  and  _524
REMARK  211  A    between atoms: _524  and  _525
REMARK  212  A    between atoms: _530  and  _532
REMARK  213  A    between atoms: _532  and  _533
REMARK  214  A    between atoms: _532  and  _535
REMARK  215  A    between atoms: _535  and  _536
REMARK  216  A    between atoms: _539  and  _541
REMARK  217  A    between atoms: _541  and  _542
REMARK  218  A    between atoms: _541  and  _544
REMARK  219  A    between atoms: _544  and  _545
REMARK  220  A    between atoms: _548  and  _550
REMARK  221  A    between atoms: _550  and  _551
REMARK  222  A    between atoms: _553  and  _555
REMARK  223  A    between atoms: _555  and  _556
REMARK  224  A    between atoms: _555  and  _558
REMARK  225  A    between atoms: _558  and  _559
REMARK  226  A    between atoms: _559  and  _560
REMARK  227  A    between atoms: _560  and  _561
REMARK  228  A    between atoms: _570  and  _572
REMARK  229  A    between atoms: _572  and  _573
REMARK  230  A    between atoms: _572  and  _575
REMARK  231  A    between atoms: _575  and  _576
REMARK                            x       y       z     vdW  Elec       q    Type
REMARK                         _______ _______ _______ _____ _____    ______ ____
ROOT
ATOM      1  O   HOH     1      25.845  -5.799  18.406  0.00  0.00    +0.000 OA
ENDROOT
TORSDOF 0
