REMARK  Name = ../refined-set-2016/4pzv/4pzv_pocket.pdb
REMARK  248 active torsions:
REMARK  status: ('A' for Active; 'I' for Inactive)
REMARK    1  A    between atoms: _1  and  _3
REMARK    2  A    between atoms: _3  and  _4
REMARK    3  A    between atoms: _3  and  _6
REMARK    4  A    between atoms: _6  and  _7
REMARK    5  A    between atoms: _10  and  _12
REMARK    6  A    between atoms: _12  and  _13
REMARK    7  A    between atoms: _12  and  _15
REMARK    8  A    between atoms: _15  and  _16
REMARK    9  A    between atoms: _19  and  _21
REMARK   10  A    between atoms: _21  and  _22
REMARK   11  A    between atoms: _24  and  _26
REMARK   12  A    between atoms: _26  and  _27
REMARK   13  A    between atoms: _26  and  _29
REMARK   14  A    between atoms: _29  and  _30
REMARK   15  A    between atoms: _33  and  _35
REMARK   16  A    between atoms: _35  and  _36
REMARK   17  A    between atoms: _38  and  _40
REMARK   18  A    between atoms: _40  and  _41
REMARK   19  A    between atoms: _40  and  _43
REMARK   20  A    between atoms: _43  and  _44
REMARK   21  A    between atoms: _47  and  _49
REMARK   22  A    between atoms: _49  and  _50
REMARK   23  A    between atoms: _49  and  _52
REMARK   24  A    between atoms: _52  and  _53
REMARK   25  A    between atoms: _58  and  _60
REMARK   26  A    between atoms: _60  and  _61
REMARK   27  A    between atoms: _60  and  _63
REMARK   28  A    between atoms: _63  and  _64
REMARK   29  A    between atoms: _69  and  _70
REMARK   30  A    between atoms: _72  and  _74
REMARK   31  A    between atoms: _74  and  _75
REMARK   32  A    between atoms: _74  and  _77
REMARK   33  A    between atoms: _77  and  _78
REMARK   34  A    between atoms: _80  and  _82
REMARK   35  A    between atoms: _82  and  _83
REMARK   36  A    between atoms: _82  and  _85
REMARK   37  A    between atoms: _85  and  _86
REMARK   38  A    between atoms: _88  and  _90
REMARK   39  A    between atoms: _90  and  _91
REMARK   40  A    between atoms: _90  and  _93
REMARK   41  A    between atoms: _93  and  _94
REMARK   42  A    between atoms: _94  and  _95
REMARK   43  A    between atoms: _95  and  _96
REMARK   44  A    between atoms: _96  and  _97
REMARK   45  A    between atoms: _101  and  _103
REMARK   46  A    between atoms: _103  and  _104
REMARK   47  A    between atoms: _107  and  _109
REMARK   48  A    between atoms: _109  and  _110
REMARK   49  A    between atoms: _109  and  _112
REMARK   50  A    between atoms: _115  and  _117
REMARK   51  A    between atoms: _117  and  _118
REMARK   52  A    between atoms: _117  and  _120
REMARK   53  A    between atoms: _120  and  _121
REMARK   54  A    between atoms: _124  and  _126
REMARK   55  A    between atoms: _126  and  _127
REMARK   56  A    between atoms: _126  and  _129
REMARK   57  A    between atoms: _129  and  _130
REMARK   58  A    between atoms: _130  and  _131
REMARK   59  A    between atoms: _131  and  _132
REMARK   60  A    between atoms: _132  and  _133
REMARK   61  A    between atoms: _137  and  _139
REMARK   62  A    between atoms: _139  and  _140
REMARK   63  A    between atoms: _139  and  _142
REMARK   64  A    between atoms: _142  and  _143
REMARK   65  A    between atoms: _153  and  _155
REMARK   66  A    between atoms: _155  and  _156
REMARK   67  A    between atoms: _155  and  _158
REMARK   68  A    between atoms: _158  and  _159
REMARK   69  A    between atoms: _162  and  _164
REMARK   70  A    between atoms: _164  and  _165
REMARK   71  A    between atoms: _164  and  _167
REMARK   72  A    between atoms: _167  and  _168
REMARK   73  A    between atoms: _168  and  _169
REMARK   74  A    between atoms: _169  and  _170
REMARK   75  A    between atoms: _179  and  _181
REMARK   76  A    between atoms: _181  and  _182
REMARK   77  A    between atoms: _181  and  _184
REMARK   78  A    between atoms: _184  and  _185
REMARK   79  A    between atoms: _191  and  _193
REMARK   80  A    between atoms: _193  and  _194
REMARK   81  A    between atoms: _193  and  _196
REMARK   82  A    between atoms: _196  and  _197
REMARK   83  A    between atoms: _200  and  _202
REMARK   84  A    between atoms: _202  and  _203
REMARK   85  A    between atoms: _202  and  _205
REMARK   86  A    between atoms: _205  and  _206
REMARK   87  A    between atoms: _211  and  _213
REMARK   88  A    between atoms: _213  and  _214
REMARK   89  A    between atoms: _213  and  _216
REMARK   90  A    between atoms: _216  and  _217
REMARK   91  A    between atoms: _221  and  _222
REMARK   92  A    between atoms: _227  and  _229
REMARK   93  A    between atoms: _229  and  _230
REMARK   94  A    between atoms: _229  and  _232
REMARK   95  A    between atoms: _232  and  _233
REMARK   96  A    between atoms: _236  and  _238
REMARK   97  A    between atoms: _238  and  _239
REMARK   98  A    between atoms: _238  and  _241
REMARK   99  A    between atoms: _241  and  _242
REMARK  100  A    between atoms: _245  and  _247
REMARK  101  A    between atoms: _247  and  _248
REMARK  102  A    between atoms: _247  and  _250
REMARK  103  A    between atoms: _250  and  _251
REMARK  104  A    between atoms: _254  and  _256
REMARK  105  A    between atoms: _256  and  _257
REMARK  106  A    between atoms: _256  and  _259
REMARK  107  A    between atoms: _259  and  _260
REMARK  108  A    between atoms: _260  and  _261
REMARK  109  A    between atoms: _261  and  _262
REMARK  110  A    between atoms: _262  and  _263
REMARK  111  A    between atoms: _267  and  _269
REMARK  112  A    between atoms: _269  and  _270
REMARK  113  A    between atoms: _269  and  _272
REMARK  114  A    between atoms: _272  and  _273
REMARK  115  A    between atoms: _273  and  _274
REMARK  116  A    between atoms: _277  and  _279
REMARK  117  A    between atoms: _279  and  _280
REMARK  118  A    between atoms: _279  and  _282
REMARK  119  A    between atoms: _282  and  _283
REMARK  120  A    between atoms: _283  and  _284
REMARK  121  A    between atoms: _284  and  _285
REMARK  122  A    between atoms: _294  and  _296
REMARK  123  A    between atoms: _296  and  _297
REMARK  124  A    between atoms: _296  and  _299
REMARK  125  A    between atoms: _299  and  _300
REMARK  126  A    between atoms: _303  and  _305
REMARK  127  A    between atoms: _305  and  _306
REMARK  128  A    between atoms: _310  and  _311
REMARK  129  A    between atoms: _316  and  _318
REMARK  130  A    between atoms: _318  and  _319
REMARK  131  A    between atoms: _322  and  _324
REMARK  132  A    between atoms: _324  and  _325
REMARK  133  A    between atoms: _324  and  _327
REMARK  134  A    between atoms: _327  and  _328
REMARK  135  A    between atoms: _338  and  _340
REMARK  136  A    between atoms: _340  and  _341
REMARK  137  A    between atoms: _340  and  _343
REMARK  138  A    between atoms: _343  and  _344
REMARK  139  A    between atoms: _347  and  _348
REMARK  140  A    between atoms: _353  and  _355
REMARK  141  A    between atoms: _355  and  _356
REMARK  142  A    between atoms: _355  and  _358
REMARK  143  A    between atoms: _358  and  _359
REMARK  144  A    between atoms: _359  and  _360
REMARK  145  A    between atoms: _360  and  _361
REMARK  146  A    between atoms: _370  and  _372
REMARK  147  A    between atoms: _372  and  _373
REMARK  148  A    between atoms: _372  and  _375
REMARK  149  A    between atoms: _375  and  _376
REMARK  150  A    between atoms: _379  and  _381
REMARK  151  A    between atoms: _381  and  _382
REMARK  152  A    between atoms: _381  and  _384
REMARK  153  A    between atoms: _384  and  _385
REMARK  154  A    between atoms: _388  and  _390
REMARK  155  A    between atoms: _390  and  _391
REMARK  156  A    between atoms: _390  and  _393
REMARK  157  A    between atoms: _393  and  _394
REMARK  158  A    between atoms: _397  and  _399
REMARK  159  A    between atoms: _399  and  _400
REMARK  160  A    between atoms: _399  and  _402
REMARK  161  A    between atoms: _402  and  _403
REMARK  162  A    between atoms: _406  and  _408
REMARK  163  A    between atoms: _408  and  _409
REMARK  164  A    between atoms: _408  and  _411
REMARK  165  A    between atoms: _411  and  _412
REMARK  166  A    between atoms: _415  and  _417
REMARK  167  A    between atoms: _417  and  _418
REMARK  168  A    between atoms: _417  and  _420
REMARK  169  A    between atoms: _420  and  _421
REMARK  170  A    between atoms: _424  and  _426
REMARK  171  A    between atoms: _426  and  _427
REMARK  172  A    between atoms: _430  and  _432
REMARK  173  A    between atoms: _432  and  _433
REMARK  174  A    between atoms: _432  and  _435
REMARK  175  A    between atoms: _435  and  _436
REMARK  176  A    between atoms: _439  and  _441
REMARK  177  A    between atoms: _441  and  _442
REMARK  178  A    between atoms: _441  and  _444
REMARK  179  A    between atoms: _444  and  _445
REMARK  180  A    between atoms: _448  and  _450
REMARK  181  A    between atoms: _450  and  _451
REMARK  182  A    between atoms: _450  and  _453
REMARK  183  A    between atoms: _453  and  _454
REMARK  184  A    between atoms: _457  and  _459
REMARK  185  A    between atoms: _459  and  _460
REMARK  186  A    between atoms: _459  and  _462
REMARK  187  A    between atoms: _462  and  _463
REMARK  188  A    between atoms: _463  and  _464
REMARK  189  A    between atoms: _464  and  _465
REMARK  190  A    between atoms: _465  and  _466
REMARK  191  A    between atoms: _470  and  _472
REMARK  192  A    between atoms: _472  and  _473
REMARK  193  A    between atoms: _472  and  _475
REMARK  194  A    between atoms: _475  and  _476
REMARK  195  A    between atoms: _479  and  _481
REMARK  196  A    between atoms: _481  and  _482
REMARK  197  A    between atoms: _481  and  _484
REMARK  198  A    between atoms: _484  and  _485
REMARK  199  A    between atoms: _488  and  _490
REMARK  200  A    between atoms: _490  and  _491
REMARK  201  A    between atoms: _490  and  _493
REMARK  202  A    between atoms: _493  and  _494
REMARK  203  A    between atoms: _498  and  _499
REMARK  204  A    between atoms: _504  and  _506
REMARK  205  A    between atoms: _506  and  _507
REMARK  206  A    between atoms: _506  and  _509
REMARK  207  A    between atoms: _509  and  _510
REMARK  208  A    between atoms: _515  and  _517
REMARK  209  A    between atoms: _517  and  _518
REMARK  210  A    between atoms: _517  and  _520
REMARK  211  A    between atoms: _520  and  _521
REMARK  212  A    between atoms: _521  and  _522
REMARK  213  A    between atoms: _522  and  _523
REMARK  214  A    between atoms: _523  and  _524
REMARK  215  A    between atoms: _528  and  _530
REMARK  216  A    between atoms: _530  and  _531
REMARK  217  A    between atoms: _530  and  _533
REMARK  218  A    between atoms: _533  and  _534
REMARK  219  A    between atoms: _534  and  _535
REMARK  220  A    between atoms: _538  and  _540
REMARK  221  A    between atoms: _540  and  _541
REMARK  222  A    between atoms: _540  and  _543
REMARK  223  A    between atoms: _543  and  _544
REMARK  224  A    between atoms: _547  and  _549
REMARK  225  A    between atoms: _549  and  _550
REMARK  226  A    between atoms: _549  and  _552
REMARK  227  A    between atoms: _552  and  _553
REMARK  228  A    between atoms: _553  and  _554
REMARK  229  A    between atoms: _554  and  _555
REMARK  230  A    between atoms: _564  and  _566
REMARK  231  A    between atoms: _566  and  _567
REMARK  232  A    between atoms: _566  and  _569
REMARK  233  A    between atoms: _569  and  _570
REMARK  234  A    between atoms: _572  and  _574
REMARK  235  A    between atoms: _574  and  _575
REMARK  236  A    between atoms: _574  and  _577
REMARK  237  A    between atoms: _577  and  _578
REMARK  238  A    between atoms: _584  and  _586
REMARK  239  A    between atoms: _586  and  _587
REMARK  240  A    between atoms: _590  and  _592
REMARK  241  A    between atoms: _592  and  _593
REMARK  242  A    between atoms: _592  and  _595
REMARK  243  A    between atoms: _595  and  _596
REMARK  244  A    between atoms: _596  and  _597
REMARK  245  A    between atoms: _600  and  _602
REMARK  246  A    between atoms: _602  and  _603
REMARK  247  A    between atoms: _602  and  _605
REMARK  248  A    between atoms: _605  and  _606
REMARK                            x       y       z     vdW  Elec       q    Type
REMARK                         _______ _______ _______ _____ _____    ______ ____
ROOT
ATOM      1  CA  ILE A   4       1.667  22.915  -3.187  0.00  0.00    +0.149 C 
ENDROOT
BRANCH   1   3
ATOM      2  C   GLY A   3       0.364  22.083  -5.071  0.00  0.00    +0.243 C 
ATOM      3  N   ILE A   4       1.309  21.871  -4.164  0.00  0.00    -0.297 N 
ATOM      4  H   ILE A   4       1.804  20.956  -4.142  0.00  0.00    +0.150 HD
ATOM      5  O   GLY A   3      -0.274  23.133  -5.127  0.00  0.00    -0.273 OA
BRANCH   2   6
ATOM      6  CA  GLY A   3       0.088  20.955  -6.056  0.00  0.00    +0.176 C 
BRANCH   6   9
ATOM      7  C   ILE A   2      -2.112  20.169  -5.422  0.00  0.00    +0.241 C 
ATOM      8  O   ILE A   2      -1.666  19.622  -4.430  0.00  0.00    -0.273 OA
ATOM      9  N   GLY A   3      -1.341  20.826  -6.284  0.00  0.00    -0.295 N 
ATOM     10  H   GLY A   3      -1.766  21.253  -7.132  0.00  0.00    +0.150 HD
BRANCH   7  11
ATOM     11  CA  ILE A   2      -3.607  20.115  -5.702  0.00  0.00    +0.148 C 
BRANCH  11  13
ATOM     12  C   ILE A   1      -4.324  18.238  -7.109  0.00  0.00    +0.238 C 
ATOM     13  N   ILE A   2      -4.010  18.734  -5.916  0.00  0.00    -0.297 N 
ATOM     14  H   ILE A   2      -4.055  18.101  -5.092  0.00  0.00    +0.150 HD
ATOM     15  O   ILE A   1      -4.248  18.872  -8.154  0.00  0.00    -0.274 OA
BRANCH  12  16
ATOM     16  CA  ILE A   1      -4.747  16.787  -7.131  0.00  0.00    +0.145 C 
BRANCH  16  17
ATOM     17  N   ILE A   1      -6.026  16.720  -7.811  0.00  0.00    -0.238 NA
ATOM     18  H   ILE A   1      -6.065  16.866  -8.840  0.00  0.00    +0.142 HD
ENDBRANCH  16  17
BRANCH  16  19
ATOM     19  CB  ILE A   1      -3.649  16.021  -7.849  0.00  0.00    +0.025 C 
ATOM     20  CG2 ILE A   1      -2.375  16.068  -7.038  0.00  0.00    +0.002 C 
BRANCH  19  21
ATOM     21  CG1 ILE A   1      -4.074  14.584  -8.110  0.00  0.00    +0.002 C 
ATOM     22  CD1 ILE A   1      -4.446  13.844  -6.887  0.00  0.00    +0.000 C 
ENDBRANCH  19  21
ENDBRANCH  16  19
ENDBRANCH  12  16
ENDBRANCH  11  13
BRANCH  11  23
ATOM     23  CB  ILE A   2      -4.309  20.703  -4.457  0.00  0.00    +0.027 C 
ATOM     24  CG2 ILE A   2      -3.857  22.159  -4.198  0.00  0.00    +0.002 C 
BRANCH  23  25
ATOM     25  CG1 ILE A   2      -5.830  20.588  -4.585  0.00  0.00    +0.002 C 
ATOM     26  CD1 ILE A   2      -6.407  21.287  -5.778  0.00  0.00    +0.000 C 
ENDBRANCH  23  25
ENDBRANCH  11  23
ENDBRANCH   7  11
ENDBRANCH   6   9
ENDBRANCH   2   6
ENDBRANCH   1   3
BRANCH   1  27
ATOM     27  C   ILE A   4       3.175  23.112  -3.110  0.00  0.00    +0.241 C 
ATOM     28  O   ILE A   4       3.931  22.163  -2.966  0.00  0.00    -0.273 OA
ATOM     29  N   GLY A   5       3.584  24.365  -3.219  0.00  0.00    -0.295 N 
ATOM     30  H   GLY A   5       2.869  25.116  -3.302  0.00  0.00    +0.150 HD
BRANCH  29  31
ATOM     31  CA  GLY A   5       4.977  24.735  -3.228  0.00  0.00    +0.176 C 
BRANCH  31  32
ATOM     32  C   GLY A   5       5.214  25.962  -2.364  0.00  0.00    +0.243 C 
ATOM     33  N   THR A   6       6.442  26.077  -1.865  0.00  0.00    -0.295 N 
ATOM     34  H   THR A   6       7.127  25.313  -2.036  0.00  0.00    +0.150 HD
ATOM     35  O   GLY A   5       4.313  26.787  -2.159  0.00  0.00    -0.273 OA
BRANCH  33  36
ATOM     36  CA  THR A   6       6.862  27.238  -1.085  0.00  0.00    +0.176 C 
BRANCH  36  37
ATOM     37  C   THR A   6       8.383  27.283  -1.040  0.00  0.00    +0.243 C 
ATOM     38  O   THR A   6       9.031  26.252  -0.972  0.00  0.00    -0.273 OA
ATOM     39  N   ASN A   7       8.964  28.472  -1.060  0.00  0.00    -0.298 N 
ATOM     40  H   ASN A   7       8.399  29.324  -1.249  0.00  0.00    +0.150 HD
BRANCH  39  41
ATOM     41  CA  ASN A   7      10.393  28.586  -0.817  0.00  0.00    +0.146 C 
BRANCH  41  42
ATOM     42  C   ASN A   7      10.785  29.808   0.041  0.00  0.00    +0.227 C 
ATOM     43  O   ASN A   7      11.962  30.141   0.109  0.00  0.00    -0.286 OA
ENDBRANCH  41  42
BRANCH  41  44
ATOM     44  CB  ASN A   7      11.178  28.553  -2.146  0.00  0.00    +0.112 C 
BRANCH  44  45
ATOM     45  CG  ASN A   7      10.937  29.769  -3.009  0.00  0.00    +0.222 C 
ATOM     46  OD1 ASN A   7       9.913  30.443  -2.893  0.00  0.00    -0.275 OA
ATOM     47  ND2 ASN A   7      11.888  30.057  -3.887  0.00  0.00    -0.329 N 
ATOM     48 HD21 ASN A   7      12.736  29.459  -3.950  0.00  0.00    +0.145 HD
ATOM     49 HD22 ASN A   7      11.785  30.881  -4.513  0.00  0.00    +0.145 HD
ENDBRANCH  44  45
ENDBRANCH  41  44
ENDBRANCH  39  41
ENDBRANCH  36  37
BRANCH  36  50
ATOM     50  CB  THR A   6       6.311  27.160   0.369  0.00  0.00    +0.137 C 
ATOM     51  CG2 THR A   6       6.739  25.851   1.057  0.00  0.00    +0.034 C 
BRANCH  50  52
ATOM     52  OG1 THR A   6       6.779  28.278   1.137  0.00  0.00    -0.382 OA
ATOM     53  HG1 THR A   6       6.468  29.119   0.717  0.00  0.00    +0.210 HD
ENDBRANCH  50  52
ENDBRANCH  36  50
ENDBRANCH  33  36
ENDBRANCH  31  32
ENDBRANCH  29  31
ENDBRANCH   1  27
BRANCH   1  54
ATOM     54  CB  ILE A   4       1.146  22.592  -1.767  0.00  0.00    +0.027 C 
ATOM     55  CG2 ILE A   4       1.378  23.778  -0.826  0.00  0.00    +0.002 C 
BRANCH  54  56
ATOM     56  CG1 ILE A   4      -0.340  22.236  -1.820  0.00  0.00    +0.002 C 
ATOM     57  CD1 ILE A   4      -0.850  21.645  -0.518  0.00  0.00    +0.000 C 
ENDBRANCH  54  56
ENDBRANCH   1  54
TORSDOF 24
REMARK  Name = ../refined-set-2016/4pzv/4pzv_pocket.pdb
REMARK  248 active torsions:
REMARK  status: ('A' for Active; 'I' for Inactive)
REMARK    1  A    between atoms: _1  and  _3
REMARK    2  A    between atoms: _3  and  _4
REMARK    3  A    between atoms: _3  and  _6
REMARK    4  A    between atoms: _6  and  _7
REMARK    5  A    between atoms: _10  and  _12
REMARK    6  A    between atoms: _12  and  _13
REMARK    7  A    between atoms: _12  and  _15
REMARK    8  A    between atoms: _15  and  _16
REMARK    9  A    between atoms: _19  and  _21
REMARK   10  A    between atoms: _21  and  _22
REMARK   11  A    between atoms: _24  and  _26
REMARK   12  A    between atoms: _26  and  _27
REMARK   13  A    between atoms: _26  and  _29
REMARK   14  A    between atoms: _29  and  _30
REMARK   15  A    between atoms: _33  and  _35
REMARK   16  A    between atoms: _35  and  _36
REMARK   17  A    between atoms: _38  and  _40
REMARK   18  A    between atoms: _40  and  _41
REMARK   19  A    between atoms: _40  and  _43
REMARK   20  A    between atoms: _43  and  _44
REMARK   21  A    between atoms: _47  and  _49
REMARK   22  A    between atoms: _49  and  _50
REMARK   23  A    between atoms: _49  and  _52
REMARK   24  A    between atoms: _52  and  _53
REMARK   25  A    between atoms: _58  and  _60
REMARK   26  A    between atoms: _60  and  _61
REMARK   27  A    between atoms: _60  and  _63
REMARK   28  A    between atoms: _63  and  _64
REMARK   29  A    between atoms: _69  and  _70
REMARK   30  A    between atoms: _72  and  _74
REMARK   31  A    between atoms: _74  and  _75
REMARK   32  A    between atoms: _74  and  _77
REMARK   33  A    between atoms: _77  and  _78
REMARK   34  A    between atoms: _80  and  _82
REMARK   35  A    between atoms: _82  and  _83
REMARK   36  A    between atoms: _82  and  _85
REMARK   37  A    between atoms: _85  and  _86
REMARK   38  A    between atoms: _88  and  _90
REMARK   39  A    between atoms: _90  and  _91
REMARK   40  A    between atoms: _90  and  _93
REMARK   41  A    between atoms: _93  and  _94
REMARK   42  A    between atoms: _94  and  _95
REMARK   43  A    between atoms: _95  and  _96
REMARK   44  A    between atoms: _96  and  _97
REMARK   45  A    between atoms: _101  and  _103
REMARK   46  A    between atoms: _103  and  _104
REMARK   47  A    between atoms: _107  and  _109
REMARK   48  A    between atoms: _109  and  _110
REMARK   49  A    between atoms: _109  and  _112
REMARK   50  A    between atoms: _115  and  _117
REMARK   51  A    between atoms: _117  and  _118
REMARK   52  A    between atoms: _117  and  _120
REMARK   53  A    between atoms: _120  and  _121
REMARK   54  A    between atoms: _124  and  _126
REMARK   55  A    between atoms: _126  and  _127
REMARK   56  A    between atoms: _126  and  _129
REMARK   57  A    between atoms: _129  and  _130
REMARK   58  A    between atoms: _130  and  _131
REMARK   59  A    between atoms: _131  and  _132
REMARK   60  A    between atoms: _132  and  _133
REMARK   61  A    between atoms: _137  and  _139
REMARK   62  A    between atoms: _139  and  _140
REMARK   63  A    between atoms: _139  and  _142
REMARK   64  A    between atoms: _142  and  _143
REMARK   65  A    between atoms: _153  and  _155
REMARK   66  A    between atoms: _155  and  _156
REMARK   67  A    between atoms: _155  and  _158
REMARK   68  A    between atoms: _158  and  _159
REMARK   69  A    between atoms: _162  and  _164
REMARK   70  A    between atoms: _164  and  _165
REMARK   71  A    between atoms: _164  and  _167
REMARK   72  A    between atoms: _167  and  _168
REMARK   73  A    between atoms: _168  and  _169
REMARK   74  A    between atoms: _169  and  _170
REMARK   75  A    between atoms: _179  and  _181
REMARK   76  A    between atoms: _181  and  _182
REMARK   77  A    between atoms: _181  and  _184
REMARK   78  A    between atoms: _184  and  _185
REMARK   79  A    between atoms: _191  and  _193
REMARK   80  A    between atoms: _193  and  _194
REMARK   81  A    between atoms: _193  and  _196
REMARK   82  A    between atoms: _196  and  _197
REMARK   83  A    between atoms: _200  and  _202
REMARK   84  A    between atoms: _202  and  _203
REMARK   85  A    between atoms: _202  and  _205
REMARK   86  A    between atoms: _205  and  _206
REMARK   87  A    between atoms: _211  and  _213
REMARK   88  A    between atoms: _213  and  _214
REMARK   89  A    between atoms: _213  and  _216
REMARK   90  A    between atoms: _216  and  _217
REMARK   91  A    between atoms: _221  and  _222
REMARK   92  A    between atoms: _227  and  _229
REMARK   93  A    between atoms: _229  and  _230
REMARK   94  A    between atoms: _229  and  _232
REMARK   95  A    between atoms: _232  and  _233
REMARK   96  A    between atoms: _236  and  _238
REMARK   97  A    between atoms: _238  and  _239
REMARK   98  A    between atoms: _238  and  _241
REMARK   99  A    between atoms: _241  and  _242
REMARK  100  A    between atoms: _245  and  _247
REMARK  101  A    between atoms: _247  and  _248
REMARK  102  A    between atoms: _247  and  _250
REMARK  103  A    between atoms: _250  and  _251
REMARK  104  A    between atoms: _254  and  _256
REMARK  105  A    between atoms: _256  and  _257
REMARK  106  A    between atoms: _256  and  _259
REMARK  107  A    between atoms: _259  and  _260
REMARK  108  A    between atoms: _260  and  _261
REMARK  109  A    between atoms: _261  and  _262
REMARK  110  A    between atoms: _262  and  _263
REMARK  111  A    between atoms: _267  and  _269
REMARK  112  A    between atoms: _269  and  _270
REMARK  113  A    between atoms: _269  and  _272
REMARK  114  A    between atoms: _272  and  _273
REMARK  115  A    between atoms: _273  and  _274
REMARK  116  A    between atoms: _277  and  _279
REMARK  117  A    between atoms: _279  and  _280
REMARK  118  A    between atoms: _279  and  _282
REMARK  119  A    between atoms: _282  and  _283
REMARK  120  A    between atoms: _283  and  _284
REMARK  121  A    between atoms: _284  and  _285
REMARK  122  A    between atoms: _294  and  _296
REMARK  123  A    between atoms: _296  and  _297
REMARK  124  A    between atoms: _296  and  _299
REMARK  125  A    between atoms: _299  and  _300
REMARK  126  A    between atoms: _303  and  _305
REMARK  127  A    between atoms: _305  and  _306
REMARK  128  A    between atoms: _310  and  _311
REMARK  129  A    between atoms: _316  and  _318
REMARK  130  A    between atoms: _318  and  _319
REMARK  131  A    between atoms: _322  and  _324
REMARK  132  A    between atoms: _324  and  _325
REMARK  133  A    between atoms: _324  and  _327
REMARK  134  A    between atoms: _327  and  _328
REMARK  135  A    between atoms: _338  and  _340
REMARK  136  A    between atoms: _340  and  _341
REMARK  137  A    between atoms: _340  and  _343
REMARK  138  A    between atoms: _343  and  _344
REMARK  139  A    between atoms: _347  and  _348
REMARK  140  A    between atoms: _353  and  _355
REMARK  141  A    between atoms: _355  and  _356
REMARK  142  A    between atoms: _355  and  _358
REMARK  143  A    between atoms: _358  and  _359
REMARK  144  A    between atoms: _359  and  _360
REMARK  145  A    between atoms: _360  and  _361
REMARK  146  A    between atoms: _370  and  _372
REMARK  147  A    between atoms: _372  and  _373
REMARK  148  A    between atoms: _372  and  _375
REMARK  149  A    between atoms: _375  and  _376
REMARK  150  A    between atoms: _379  and  _381
REMARK  151  A    between atoms: _381  and  _382
REMARK  152  A    between atoms: _381  and  _384
REMARK  153  A    between atoms: _384  and  _385
REMARK  154  A    between atoms: _388  and  _390
REMARK  155  A    between atoms: _390  and  _391
REMARK  156  A    between atoms: _390  and  _393
REMARK  157  A    between atoms: _393  and  _394
REMARK  158  A    between atoms: _397  and  _399
REMARK  159  A    between atoms: _399  and  _400
REMARK  160  A    between atoms: _399  and  _402
REMARK  161  A    between atoms: _402  and  _403
REMARK  162  A    between atoms: _406  and  _408
REMARK  163  A    between atoms: _408  and  _409
REMARK  164  A    between atoms: _408  and  _411
REMARK  165  A    between atoms: _411  and  _412
REMARK  166  A    between atoms: _415  and  _417
REMARK  167  A    between atoms: _417  and  _418
REMARK  168  A    between atoms: _417  and  _420
REMARK  169  A    between atoms: _420  and  _421
REMARK  170  A    between atoms: _424  and  _426
REMARK  171  A    between atoms: _426  and  _427
REMARK  172  A    between atoms: _430  and  _432
REMARK  173  A    between atoms: _432  and  _433
REMARK  174  A    between atoms: _432  and  _435
REMARK  175  A    between atoms: _435  and  _436
REMARK  176  A    between atoms: _439  and  _441
REMARK  177  A    between atoms: _441  and  _442
REMARK  178  A    between atoms: _441  and  _444
REMARK  179  A    between atoms: _444  and  _445
REMARK  180  A    between atoms: _448  and  _450
REMARK  181  A    between atoms: _450  and  _451
REMARK  182  A    between atoms: _450  and  _453
REMARK  183  A    between atoms: _453  and  _454
REMARK  184  A    between atoms: _457  and  _459
REMARK  185  A    between atoms: _459  and  _460
REMARK  186  A    between atoms: _459  and  _462
REMARK  187  A    between atoms: _462  and  _463
REMARK  188  A    between atoms: _463  and  _464
REMARK  189  A    between atoms: _464  and  _465
REMARK  190  A    between atoms: _465  and  _466
REMARK  191  A    between atoms: _470  and  _472
REMARK  192  A    between atoms: _472  and  _473
REMARK  193  A    between atoms: _472  and  _475
REMARK  194  A    between atoms: _475  and  _476
REMARK  195  A    between atoms: _479  and  _481
REMARK  196  A    between atoms: _481  and  _482
REMARK  197  A    between atoms: _481  and  _484
REMARK  198  A    between atoms: _484  and  _485
REMARK  199  A    between atoms: _488  and  _490
REMARK  200  A    between atoms: _490  and  _491
REMARK  201  A    between atoms: _490  and  _493
REMARK  202  A    between atoms: _493  and  _494
REMARK  203  A    between atoms: _498  and  _499
REMARK  204  A    between atoms: _504  and  _506
REMARK  205  A    between atoms: _506  and  _507
REMARK  206  A    between atoms: _506  and  _509
REMARK  207  A    between atoms: _509  and  _510
REMARK  208  A    between atoms: _515  and  _517
REMARK  209  A    between atoms: _517  and  _518
REMARK  210  A    between atoms: _517  and  _520
REMARK  211  A    between atoms: _520  and  _521
REMARK  212  A    between atoms: _521  and  _522
REMARK  213  A    between atoms: _522  and  _523
REMARK  214  A    between atoms: _523  and  _524
REMARK  215  A    between atoms: _528  and  _530
REMARK  216  A    between atoms: _530  and  _531
REMARK  217  A    between atoms: _530  and  _533
REMARK  218  A    between atoms: _533  and  _534
REMARK  219  A    between atoms: _534  and  _535
REMARK  220  A    between atoms: _538  and  _540
REMARK  221  A    between atoms: _540  and  _541
REMARK  222  A    between atoms: _540  and  _543
REMARK  223  A    between atoms: _543  and  _544
REMARK  224  A    between atoms: _547  and  _549
REMARK  225  A    between atoms: _549  and  _550
REMARK  226  A    between atoms: _549  and  _552
REMARK  227  A    between atoms: _552  and  _553
REMARK  228  A    between atoms: _553  and  _554
REMARK  229  A    between atoms: _554  and  _555
REMARK  230  A    between atoms: _564  and  _566
REMARK  231  A    between atoms: _566  and  _567
REMARK  232  A    between atoms: _566  and  _569
REMARK  233  A    between atoms: _569  and  _570
REMARK  234  A    between atoms: _572  and  _574
REMARK  235  A    between atoms: _574  and  _575
REMARK  236  A    between atoms: _574  and  _577
REMARK  237  A    between atoms: _577  and  _578
REMARK  238  A    between atoms: _584  and  _586
REMARK  239  A    between atoms: _586  and  _587
REMARK  240  A    between atoms: _590  and  _592
REMARK  241  A    between atoms: _592  and  _593
REMARK  242  A    between atoms: _592  and  _595
REMARK  243  A    between atoms: _595  and  _596
REMARK  244  A    between atoms: _596  and  _597
REMARK  245  A    between atoms: _600  and  _602
REMARK  246  A    between atoms: _602  and  _603
REMARK  247  A    between atoms: _602  and  _605
REMARK  248  A    between atoms: _605  and  _606
REMARK                            x       y       z     vdW  Elec       q    Type
REMARK                         _______ _______ _______ _____ _____    ______ ____
ROOT
ATOM      1  CA  LYS A   4      16.189  23.543  -6.553  0.00  0.00    +0.149 C 
ENDROOT
BRANCH   1   4
ATOM      2  C   SER A   3      14.738  22.045  -5.310  0.00  0.00    +0.243 C 
ATOM      3  O   SER A   3      14.276  22.963  -4.641  0.00  0.00    -0.273 OA
ATOM      4  N   LYS A   4      15.717  22.211  -6.190  0.00  0.00    -0.297 N 
ATOM      5  H   LYS A   4      16.156  21.377  -6.629  0.00  0.00    +0.150 HD
BRANCH   2   6
ATOM      6  CA  SER A   3      14.205  20.639  -5.159  0.00  0.00    +0.178 C 
BRANCH   6   9
ATOM      7  C   SER A   2      13.485  19.251  -3.309  0.00  0.00    +0.243 C 
ATOM      8  O   SER A   2      13.970  18.268  -3.821  0.00  0.00    -0.273 OA
ATOM      9  N   SER A   3      13.573  20.454  -3.859  0.00  0.00    -0.295 N 
ATOM     10  H   SER A   3      13.186  21.277  -3.356  0.00  0.00    +0.150 HD
BRANCH   7  11
ATOM     11  CA  SER A   2      12.784  19.130  -1.960  0.00  0.00    +0.178 C 
BRANCH  11  14
ATOM     12  C   TYR A   1      10.582  18.148  -1.760  0.00  0.00    +0.239 C 
ATOM     13  O   TYR A   1      10.052  19.238  -1.624  0.00  0.00    -0.274 OA
ATOM     14  N   SER A   2      11.880  18.009  -1.977  0.00  0.00    -0.295 N 
ATOM     15  H   SER A   2      12.260  17.059  -2.166  0.00  0.00    +0.150 HD
BRANCH  12  16
ATOM     16  CA  TYR A   1       9.783  16.851  -1.685  0.00  0.00    +0.149 C 
BRANCH  16  17
ATOM     17  N   TYR A   1       8.719  16.896  -0.674  0.00  0.00    -0.238 NA
ATOM     18  H   TYR A   1       7.989  17.632  -0.758  0.00  0.00    +0.142 HD
ENDBRANCH  16  17
BRANCH  16  19
ATOM     19  CB  TYR A   1       9.176  16.546  -3.062  0.00  0.00    +0.053 C 
BRANCH  19  20
ATOM     20  CG  TYR A   1       8.492  15.206  -3.104  0.00  0.00    -0.020 A 
ATOM     21  CD2 TYR A   1       7.153  15.070  -2.734  0.00  0.00    -0.001 A 
ATOM     22  CE2 TYR A   1       6.513  13.818  -2.766  0.00  0.00    +0.036 A 
ATOM     23  CZ  TYR A   1       7.228  12.707  -3.157  0.00  0.00    +0.134 A 
ATOM     24  CE1 TYR A   1       8.558  12.825  -3.513  0.00  0.00    +0.036 A 
ATOM     25  CD1 TYR A   1       9.184  14.067  -3.484  0.00  0.00    -0.001 A 
BRANCH  23  26
ATOM     26  OH  TYR A   1       6.620  11.462  -3.200  0.00  0.00    -0.506 OA
ATOM     27  HH  TYR A   1       5.675  11.548  -2.918  0.00  0.00    +0.292 HD
ENDBRANCH  23  26
ENDBRANCH  19  20
ENDBRANCH  16  19
ENDBRANCH  12  16
ENDBRANCH  11  14
BRANCH  11  28
ATOM     28  CB  SER A   2      13.835  18.888  -0.880  0.00  0.00    +0.166 C 
BRANCH  28  29
ATOM     29  OG  SER A   2      14.946  19.688  -1.116  0.00  0.00    -0.380 OA
ATOM     30  H   SER A   2      15.623  19.526  -0.412  0.00  0.00    +0.211 HD
ENDBRANCH  28  29
ENDBRANCH  11  28
ENDBRANCH   7  11
ENDBRANCH   6   9
BRANCH   6  31
ATOM     31  CB  SER A   3      13.218  20.325  -6.307  0.00  0.00    +0.166 C 
BRANCH  31  32
ATOM     32  OG  SER A   3      12.034  21.110  -6.205  0.00  0.00    -0.380 OA
ATOM     33  H   SER A   3      11.585  20.918  -5.344  0.00  0.00    +0.211 HD
ENDBRANCH  31  32
ENDBRANCH   6  31
ENDBRANCH   2   6
ENDBRANCH   1   4
BRANCH   1  34
ATOM     34  C   LYS A   4      15.111  24.313  -7.283  0.00  0.00    +0.241 C 
ATOM     35  N   ALA A   5      15.000  25.596  -6.960  0.00  0.00    -0.297 N 
ATOM     36  H   ALA A   5      15.554  25.967  -6.161  0.00  0.00    +0.150 HD
ATOM     37  O   LYS A   4      14.397  23.757  -8.113  0.00  0.00    -0.273 OA
BRANCH  35  38
ATOM     38  CA  ALA A   5      14.131  26.491  -7.688  0.00  0.00    +0.149 C 
ATOM     39  CB  ALA A   5      14.420  27.941  -7.298  0.00  0.00    +0.031 C 
BRANCH  38  40
ATOM     40  C   ALA A   5      14.374  26.292  -9.175  0.00  0.00    +0.241 C 
ATOM     41  O   ALA A   5      15.505  26.328  -9.632  0.00  0.00    -0.273 OA
ATOM     42  N   VAL A   6      13.307  26.031  -9.913  0.00  0.00    -0.297 N 
ATOM     43  H   VAL A   6      12.406  25.810  -9.442  0.00  0.00    +0.150 HD
BRANCH  42  44
ATOM     44  CA  VAL A   6      13.362  26.045 -11.366  0.00  0.00    +0.149 C 
BRANCH  44  45
ATOM     45  C   VAL A   6      13.215  27.486 -11.818  0.00  0.00    +0.241 C 
ATOM     46  O   VAL A   6      12.180  28.118 -11.601  0.00  0.00    -0.273 OA
ATOM     47  N   LEU A   7      14.276  28.013 -12.417  0.00  0.00    -0.297 N 
ATOM     48  H   LEU A   7      15.090  27.402 -12.630  0.00  0.00    +0.150 HD
BRANCH  47  49
ATOM     49  CA  LEU A   7      14.335  29.416 -12.784  0.00  0.00    +0.149 C 
BRANCH  49  50
ATOM     50  C   LEU A   7      14.679  29.602 -14.244  0.00  0.00    +0.241 C 
ATOM     51  N   LYS A   8      14.328  30.773 -14.751  0.00  0.00    -0.298 N 
ATOM     52  H   LYS A   8      13.710  31.401 -14.199  0.00  0.00    +0.150 HD
ATOM     53  O   LEU A   7      15.272  28.733 -14.883  0.00  0.00    -0.273 OA
BRANCH  51  54
ATOM     54  CA  LYS A   8      14.786  31.199 -16.058  0.00  0.00    +0.137 C 
BRANCH  54  55
ATOM     55  C   LYS A   8      16.294  31.388 -15.935  0.00  0.00    +0.227 C 
ATOM     56  O   LYS A   8      16.825  31.459 -14.824  0.00  0.00    -0.286 OA
ENDBRANCH  54  55
BRANCH  54  57
ATOM     57  CB  LYS A   8      14.082  32.479 -16.472  0.00  0.00    +0.028 C 
BRANCH  57  58
ATOM     58  CG  LYS A   8      14.283  33.614 -15.492  0.00  0.00    -0.000 C 
BRANCH  58  59
ATOM     59  CD  LYS A   8      13.887  34.938 -16.077  0.00  0.00    -0.024 C 
BRANCH  59  60
ATOM     60  CE  LYS A   8      13.747  35.959 -14.972  0.00  0.00    -0.086 C 
BRANCH  60  61
ATOM     61  NZ  LYS A   8      12.840  37.068 -15.374  0.00  0.00    +0.380 N 
ATOM     62  HZ1 LYS A   8      12.764  37.752 -14.595  0.00  0.00    -0.089 HD
ATOM     63  HZ2 LYS A   8      11.899  36.683 -15.591  0.00  0.00    -0.089 HD
ATOM     64  HZ3 LYS A   8      13.225  37.541 -16.216  0.00  0.00    -0.089 HD
ENDBRANCH  60  61
ENDBRANCH  59  60
ENDBRANCH  58  59
ENDBRANCH  57  58
ENDBRANCH  54  57
ENDBRANCH  51  54
ENDBRANCH  49  50
BRANCH  49  65
ATOM     65  CB  LEU A   7      15.420  30.142 -11.997  0.00  0.00    +0.029 C 
BRANCH  65  66
ATOM     66  CG  LEU A   7      15.294  30.174 -10.488  0.00  0.00    +0.002 C 
ATOM     67  CD2 LEU A   7      16.341  31.073  -9.889  0.00  0.00    +0.000 C 
ATOM     68  CD1 LEU A   7      13.933  30.655 -10.150  0.00  0.00    +0.000 C 
ENDBRANCH  65  66
ENDBRANCH  49  65
ENDBRANCH  47  49
ENDBRANCH  44  45
BRANCH  44  69
ATOM     69  CB  VAL A   6      12.242  25.196 -11.964  0.00  0.00    +0.027 C 
ATOM     70  CG2 VAL A   6      12.376  23.752 -11.496  0.00  0.00    +0.002 C 
ATOM     71  CG1 VAL A   6      12.266  25.277 -13.479  0.00  0.00    +0.002 C 
ENDBRANCH  44  69
ENDBRANCH  42  44
ENDBRANCH  38  40
ENDBRANCH  35  38
ENDBRANCH   1  34
BRANCH   1  72
ATOM     72  CB  LYS A   4      17.403  23.460  -7.463  0.00  0.00    +0.029 C 
BRANCH  72  73
ATOM     73  CG  LYS A   4      18.617  22.860  -6.792  0.00  0.00    +0.000 C 
BRANCH  73  74
ATOM     74  CD  LYS A   4      19.801  22.966  -7.718  0.00  0.00    -0.024 C 
BRANCH  74  75
ATOM     75  CE  LYS A   4      21.068  22.384  -7.129  0.00  0.00    -0.086 C 
BRANCH  75  76
ATOM     76  NZ  LYS A   4      22.209  22.628  -8.066  0.00  0.00    +0.380 N 
ATOM     77  HZ1 LYS A   4      23.080  22.228  -7.662  0.00  0.00    -0.089 HD
ATOM     78  HZ2 LYS A   4      22.328  23.652  -8.206  0.00  0.00    -0.089 HD
ATOM     79  HZ3 LYS A   4      22.009  22.173  -8.980  0.00  0.00    -0.089 HD
ENDBRANCH  75  76
ENDBRANCH  74  75
ENDBRANCH  73  74
ENDBRANCH  72  73
ENDBRANCH   1  72
TORSDOF 36
REMARK  Name = ../refined-set-2016/4pzv/4pzv_pocket.pdb
REMARK  248 active torsions:
REMARK  status: ('A' for Active; 'I' for Inactive)
REMARK    1  A    between atoms: _1  and  _3
REMARK    2  A    between atoms: _3  and  _4
REMARK    3  A    between atoms: _3  and  _6
REMARK    4  A    between atoms: _6  and  _7
REMARK    5  A    between atoms: _10  and  _12
REMARK    6  A    between atoms: _12  and  _13
REMARK    7  A    between atoms: _12  and  _15
REMARK    8  A    between atoms: _15  and  _16
REMARK    9  A    between atoms: _19  and  _21
REMARK   10  A    between atoms: _21  and  _22
REMARK   11  A    between atoms: _24  and  _26
REMARK   12  A    between atoms: _26  and  _27
REMARK   13  A    between atoms: _26  and  _29
REMARK   14  A    between atoms: _29  and  _30
REMARK   15  A    between atoms: _33  and  _35
REMARK   16  A    between atoms: _35  and  _36
REMARK   17  A    between atoms: _38  and  _40
REMARK   18  A    between atoms: _40  and  _41
REMARK   19  A    between atoms: _40  and  _43
REMARK   20  A    between atoms: _43  and  _44
REMARK   21  A    between atoms: _47  and  _49
REMARK   22  A    between atoms: _49  and  _50
REMARK   23  A    between atoms: _49  and  _52
REMARK   24  A    between atoms: _52  and  _53
REMARK   25  A    between atoms: _58  and  _60
REMARK   26  A    between atoms: _60  and  _61
REMARK   27  A    between atoms: _60  and  _63
REMARK   28  A    between atoms: _63  and  _64
REMARK   29  A    between atoms: _69  and  _70
REMARK   30  A    between atoms: _72  and  _74
REMARK   31  A    between atoms: _74  and  _75
REMARK   32  A    between atoms: _74  and  _77
REMARK   33  A    between atoms: _77  and  _78
REMARK   34  A    between atoms: _80  and  _82
REMARK   35  A    between atoms: _82  and  _83
REMARK   36  A    between atoms: _82  and  _85
REMARK   37  A    between atoms: _85  and  _86
REMARK   38  A    between atoms: _88  and  _90
REMARK   39  A    between atoms: _90  and  _91
REMARK   40  A    between atoms: _90  and  _93
REMARK   41  A    between atoms: _93  and  _94
REMARK   42  A    between atoms: _94  and  _95
REMARK   43  A    between atoms: _95  and  _96
REMARK   44  A    between atoms: _96  and  _97
REMARK   45  A    between atoms: _101  and  _103
REMARK   46  A    between atoms: _103  and  _104
REMARK   47  A    between atoms: _107  and  _109
REMARK   48  A    between atoms: _109  and  _110
REMARK   49  A    between atoms: _109  and  _112
REMARK   50  A    between atoms: _115  and  _117
REMARK   51  A    between atoms: _117  and  _118
REMARK   52  A    between atoms: _117  and  _120
REMARK   53  A    between atoms: _120  and  _121
REMARK   54  A    between atoms: _124  and  _126
REMARK   55  A    between atoms: _126  and  _127
REMARK   56  A    between atoms: _126  and  _129
REMARK   57  A    between atoms: _129  and  _130
REMARK   58  A    between atoms: _130  and  _131
REMARK   59  A    between atoms: _131  and  _132
REMARK   60  A    between atoms: _132  and  _133
REMARK   61  A    between atoms: _137  and  _139
REMARK   62  A    between atoms: _139  and  _140
REMARK   63  A    between atoms: _139  and  _142
REMARK   64  A    between atoms: _142  and  _143
REMARK   65  A    between atoms: _153  and  _155
REMARK   66  A    between atoms: _155  and  _156
REMARK   67  A    between atoms: _155  and  _158
REMARK   68  A    between atoms: _158  and  _159
REMARK   69  A    between atoms: _162  and  _164
REMARK   70  A    between atoms: _164  and  _165
REMARK   71  A    between atoms: _164  and  _167
REMARK   72  A    between atoms: _167  and  _168
REMARK   73  A    between atoms: _168  and  _169
REMARK   74  A    between atoms: _169  and  _170
REMARK   75  A    between atoms: _179  and  _181
REMARK   76  A    between atoms: _181  and  _182
REMARK   77  A    between atoms: _181  and  _184
REMARK   78  A    between atoms: _184  and  _185
REMARK   79  A    between atoms: _191  and  _193
REMARK   80  A    between atoms: _193  and  _194
REMARK   81  A    between atoms: _193  and  _196
REMARK   82  A    between atoms: _196  and  _197
REMARK   83  A    between atoms: _200  and  _202
REMARK   84  A    between atoms: _202  and  _203
REMARK   85  A    between atoms: _202  and  _205
REMARK   86  A    between atoms: _205  and  _206
REMARK   87  A    between atoms: _211  and  _213
REMARK   88  A    between atoms: _213  and  _214
REMARK   89  A    between atoms: _213  and  _216
REMARK   90  A    between atoms: _216  and  _217
REMARK   91  A    between atoms: _221  and  _222
REMARK   92  A    between atoms: _227  and  _229
REMARK   93  A    between atoms: _229  and  _230
REMARK   94  A    between atoms: _229  and  _232
REMARK   95  A    between atoms: _232  and  _233
REMARK   96  A    between atoms: _236  and  _238
REMARK   97  A    between atoms: _238  and  _239
REMARK   98  A    between atoms: _238  and  _241
REMARK   99  A    between atoms: _241  and  _242
REMARK  100  A    between atoms: _245  and  _247
REMARK  101  A    between atoms: _247  and  _248
REMARK  102  A    between atoms: _247  and  _250
REMARK  103  A    between atoms: _250  and  _251
REMARK  104  A    between atoms: _254  and  _256
REMARK  105  A    between atoms: _256  and  _257
REMARK  106  A    between atoms: _256  and  _259
REMARK  107  A    between atoms: _259  and  _260
REMARK  108  A    between atoms: _260  and  _261
REMARK  109  A    between atoms: _261  and  _262
REMARK  110  A    between atoms: _262  and  _263
REMARK  111  A    between atoms: _267  and  _269
REMARK  112  A    between atoms: _269  and  _270
REMARK  113  A    between atoms: _269  and  _272
REMARK  114  A    between atoms: _272  and  _273
REMARK  115  A    between atoms: _273  and  _274
REMARK  116  A    between atoms: _277  and  _279
REMARK  117  A    between atoms: _279  and  _280
REMARK  118  A    between atoms: _279  and  _282
REMARK  119  A    between atoms: _282  and  _283
REMARK  120  A    between atoms: _283  and  _284
REMARK  121  A    between atoms: _284  and  _285
REMARK  122  A    between atoms: _294  and  _296
REMARK  123  A    between atoms: _296  and  _297
REMARK  124  A    between atoms: _296  and  _299
REMARK  125  A    between atoms: _299  and  _300
REMARK  126  A    between atoms: _303  and  _305
REMARK  127  A    between atoms: _305  and  _306
REMARK  128  A    between atoms: _310  and  _311
REMARK  129  A    between atoms: _316  and  _318
REMARK  130  A    between atoms: _318  and  _319
REMARK  131  A    between atoms: _322  and  _324
REMARK  132  A    between atoms: _324  and  _325
REMARK  133  A    between atoms: _324  and  _327
REMARK  134  A    between atoms: _327  and  _328
REMARK  135  A    between atoms: _338  and  _340
REMARK  136  A    between atoms: _340  and  _341
REMARK  137  A    between atoms: _340  and  _343
REMARK  138  A    between atoms: _343  and  _344
REMARK  139  A    between atoms: _347  and  _348
REMARK  140  A    between atoms: _353  and  _355
REMARK  141  A    between atoms: _355  and  _356
REMARK  142  A    between atoms: _355  and  _358
REMARK  143  A    between atoms: _358  and  _359
REMARK  144  A    between atoms: _359  and  _360
REMARK  145  A    between atoms: _360  and  _361
REMARK  146  A    between atoms: _370  and  _372
REMARK  147  A    between atoms: _372  and  _373
REMARK  148  A    between atoms: _372  and  _375
REMARK  149  A    between atoms: _375  and  _376
REMARK  150  A    between atoms: _379  and  _381
REMARK  151  A    between atoms: _381  and  _382
REMARK  152  A    between atoms: _381  and  _384
REMARK  153  A    between atoms: _384  and  _385
REMARK  154  A    between atoms: _388  and  _390
REMARK  155  A    between atoms: _390  and  _391
REMARK  156  A    between atoms: _390  and  _393
REMARK  157  A    between atoms: _393  and  _394
REMARK  158  A    between atoms: _397  and  _399
REMARK  159  A    between atoms: _399  and  _400
REMARK  160  A    between atoms: _399  and  _402
REMARK  161  A    between atoms: _402  and  _403
REMARK  162  A    between atoms: _406  and  _408
REMARK  163  A    between atoms: _408  and  _409
REMARK  164  A    between atoms: _408  and  _411
REMARK  165  A    between atoms: _411  and  _412
REMARK  166  A    between atoms: _415  and  _417
REMARK  167  A    between atoms: _417  and  _418
REMARK  168  A    between atoms: _417  and  _420
REMARK  169  A    between atoms: _420  and  _421
REMARK  170  A    between atoms: _424  and  _426
REMARK  171  A    between atoms: _426  and  _427
REMARK  172  A    between atoms: _430  and  _432
REMARK  173  A    between atoms: _432  and  _433
REMARK  174  A    between atoms: _432  and  _435
REMARK  175  A    between atoms: _435  and  _436
REMARK  176  A    between atoms: _439  and  _441
REMARK  177  A    between atoms: _441  and  _442
REMARK  178  A    between atoms: _441  and  _444
REMARK  179  A    between atoms: _444  and  _445
REMARK  180  A    between atoms: _448  and  _450
REMARK  181  A    between atoms: _450  and  _451
REMARK  182  A    between atoms: _450  and  _453
REMARK  183  A    between atoms: _453  and  _454
REMARK  184  A    between atoms: _457  and  _459
REMARK  185  A    between atoms: _459  and  _460
REMARK  186  A    between atoms: _459  and  _462
REMARK  187  A    between atoms: _462  and  _463
REMARK  188  A    between atoms: _463  and  _464
REMARK  189  A    between atoms: _464  and  _465
REMARK  190  A    between atoms: _465  and  _466
REMARK  191  A    between atoms: _470  and  _472
REMARK  192  A    between atoms: _472  and  _473
REMARK  193  A    between atoms: _472  and  _475
REMARK  194  A    between atoms: _475  and  _476
REMARK  195  A    between atoms: _479  and  _481
REMARK  196  A    between atoms: _481  and  _482
REMARK  197  A    between atoms: _481  and  _484
REMARK  198  A    between atoms: _484  and  _485
REMARK  199  A    between atoms: _488  and  _490
REMARK  200  A    between atoms: _490  and  _491
REMARK  201  A    between atoms: _490  and  _493
REMARK  202  A    between atoms: _493  and  _494
REMARK  203  A    between atoms: _498  and  _499
REMARK  204  A    between atoms: _504  and  _506
REMARK  205  A    between atoms: _506  and  _507
REMARK  206  A    between atoms: _506  and  _509
REMARK  207  A    between atoms: _509  and  _510
REMARK  208  A    between atoms: _515  and  _517
REMARK  209  A    between atoms: _517  and  _518
REMARK  210  A    between atoms: _517  and  _520
REMARK  211  A    between atoms: _520  and  _521
REMARK  212  A    between atoms: _521  and  _522
REMARK  213  A    between atoms: _522  and  _523
REMARK  214  A    between atoms: _523  and  _524
REMARK  215  A    between atoms: _528  and  _530
REMARK  216  A    between atoms: _530  and  _531
REMARK  217  A    between atoms: _530  and  _533
REMARK  218  A    between atoms: _533  and  _534
REMARK  219  A    between atoms: _534  and  _535
REMARK  220  A    between atoms: _538  and  _540
REMARK  221  A    between atoms: _540  and  _541
REMARK  222  A    between atoms: _540  and  _543
REMARK  223  A    between atoms: _543  and  _544
REMARK  224  A    between atoms: _547  and  _549
REMARK  225  A    between atoms: _549  and  _550
REMARK  226  A    between atoms: _549  and  _552
REMARK  227  A    between atoms: _552  and  _553
REMARK  228  A    between atoms: _553  and  _554
REMARK  229  A    between atoms: _554  and  _555
REMARK  230  A    between atoms: _564  and  _566
REMARK  231  A    between atoms: _566  and  _567
REMARK  232  A    between atoms: _566  and  _569
REMARK  233  A    between atoms: _569  and  _570
REMARK  234  A    between atoms: _572  and  _574
REMARK  235  A    between atoms: _574  and  _575
REMARK  236  A    between atoms: _574  and  _577
REMARK  237  A    between atoms: _577  and  _578
REMARK  238  A    between atoms: _584  and  _586
REMARK  239  A    between atoms: _586  and  _587
REMARK  240  A    between atoms: _590  and  _592
REMARK  241  A    between atoms: _592  and  _593
REMARK  242  A    between atoms: _592  and  _595
REMARK  243  A    between atoms: _595  and  _596
REMARK  244  A    between atoms: _596  and  _597
REMARK  245  A    between atoms: _600  and  _602
REMARK  246  A    between atoms: _602  and  _603
REMARK  247  A    between atoms: _602  and  _605
REMARK  248  A    between atoms: _605  and  _606
REMARK                            x       y       z     vdW  Elec       q    Type
REMARK                         _______ _______ _______ _____ _____    ______ ____
ROOT
ATOM      1  CG  TRP A   1      14.200  35.491  -7.921  0.00  0.00    -0.002 A 
ATOM      2  CD1 TRP A   1      14.161  36.470  -6.966  0.00  0.00    +0.068 A 
ATOM      3  NE1 TRP A   1      13.556  37.592  -7.472  0.00  0.00    -0.352 N 
ATOM      4  HE1 TRP A   1      13.393  38.478  -6.952  0.00  0.00    +0.166 HD
ATOM      5  CE2 TRP A   1      13.200  37.355  -8.777  0.00  0.00    +0.056 A 
ATOM      6  CZ2 TRP A   1      12.571  38.183  -9.696  0.00  0.00    +0.017 A 
ATOM      7  CH2 TRP A   1      12.335  37.671 -10.945  0.00  0.00    +0.001 A 
ATOM      8  CZ3 TRP A   1      12.709  36.373 -11.285  0.00  0.00    +0.000 A 
ATOM      9  CE3 TRP A   1      13.333  35.548 -10.371  0.00  0.00    +0.001 A 
ATOM     10  CD2 TRP A   1      13.589  36.042  -9.089  0.00  0.00    +0.013 A 
ENDROOT
BRANCH   1  11
ATOM     11  CB  TRP A   1      14.770  34.120  -7.781  0.00  0.00    +0.053 C 
BRANCH  11  12
ATOM     12  CA  TRP A   1      15.397  33.861  -6.415  0.00  0.00    +0.137 C 
BRANCH  12  13
ATOM     13  N   TRP A   1      16.535  34.738  -6.207  0.00  0.00    -0.239 NA
ATOM     14  H   TRP A   1      17.139  34.990  -7.015  0.00  0.00    +0.142 HD
ENDBRANCH  12  13
BRANCH  12  15
ATOM     15  C   TRP A   1      15.780  32.390  -6.300  0.00  0.00    +0.224 C 
ATOM     16  O   TRP A   1      14.919  31.512  -6.363  0.00  0.00    -0.287 OA
ENDBRANCH  12  15
ENDBRANCH  11  12
ENDBRANCH   1  11
TORSDOF 4
REMARK  Name = ../refined-set-2016/4pzv/4pzv_pocket.pdb
REMARK  248 active torsions:
REMARK  status: ('A' for Active; 'I' for Inactive)
REMARK    1  A    between atoms: _1  and  _3
REMARK    2  A    between atoms: _3  and  _4
REMARK    3  A    between atoms: _3  and  _6
REMARK    4  A    between atoms: _6  and  _7
REMARK    5  A    between atoms: _10  and  _12
REMARK    6  A    between atoms: _12  and  _13
REMARK    7  A    between atoms: _12  and  _15
REMARK    8  A    between atoms: _15  and  _16
REMARK    9  A    between atoms: _19  and  _21
REMARK   10  A    between atoms: _21  and  _22
REMARK   11  A    between atoms: _24  and  _26
REMARK   12  A    between atoms: _26  and  _27
REMARK   13  A    between atoms: _26  and  _29
REMARK   14  A    between atoms: _29  and  _30
REMARK   15  A    between atoms: _33  and  _35
REMARK   16  A    between atoms: _35  and  _36
REMARK   17  A    between atoms: _38  and  _40
REMARK   18  A    between atoms: _40  and  _41
REMARK   19  A    between atoms: _40  and  _43
REMARK   20  A    between atoms: _43  and  _44
REMARK   21  A    between atoms: _47  and  _49
REMARK   22  A    between atoms: _49  and  _50
REMARK   23  A    between atoms: _49  and  _52
REMARK   24  A    between atoms: _52  and  _53
REMARK   25  A    between atoms: _58  and  _60
REMARK   26  A    between atoms: _60  and  _61
REMARK   27  A    between atoms: _60  and  _63
REMARK   28  A    between atoms: _63  and  _64
REMARK   29  A    between atoms: _69  and  _70
REMARK   30  A    between atoms: _72  and  _74
REMARK   31  A    between atoms: _74  and  _75
REMARK   32  A    between atoms: _74  and  _77
REMARK   33  A    between atoms: _77  and  _78
REMARK   34  A    between atoms: _80  and  _82
REMARK   35  A    between atoms: _82  and  _83
REMARK   36  A    between atoms: _82  and  _85
REMARK   37  A    between atoms: _85  and  _86
REMARK   38  A    between atoms: _88  and  _90
REMARK   39  A    between atoms: _90  and  _91
REMARK   40  A    between atoms: _90  and  _93
REMARK   41  A    between atoms: _93  and  _94
REMARK   42  A    between atoms: _94  and  _95
REMARK   43  A    between atoms: _95  and  _96
REMARK   44  A    between atoms: _96  and  _97
REMARK   45  A    between atoms: _101  and  _103
REMARK   46  A    between atoms: _103  and  _104
REMARK   47  A    between atoms: _107  and  _109
REMARK   48  A    between atoms: _109  and  _110
REMARK   49  A    between atoms: _109  and  _112
REMARK   50  A    between atoms: _115  and  _117
REMARK   51  A    between atoms: _117  and  _118
REMARK   52  A    between atoms: _117  and  _120
REMARK   53  A    between atoms: _120  and  _121
REMARK   54  A    between atoms: _124  and  _126
REMARK   55  A    between atoms: _126  and  _127
REMARK   56  A    between atoms: _126  and  _129
REMARK   57  A    between atoms: _129  and  _130
REMARK   58  A    between atoms: _130  and  _131
REMARK   59  A    between atoms: _131  and  _132
REMARK   60  A    between atoms: _132  and  _133
REMARK   61  A    between atoms: _137  and  _139
REMARK   62  A    between atoms: _139  and  _140
REMARK   63  A    between atoms: _139  and  _142
REMARK   64  A    between atoms: _142  and  _143
REMARK   65  A    between atoms: _153  and  _155
REMARK   66  A    between atoms: _155  and  _156
REMARK   67  A    between atoms: _155  and  _158
REMARK   68  A    between atoms: _158  and  _159
REMARK   69  A    between atoms: _162  and  _164
REMARK   70  A    between atoms: _164  and  _165
REMARK   71  A    between atoms: _164  and  _167
REMARK   72  A    between atoms: _167  and  _168
REMARK   73  A    between atoms: _168  and  _169
REMARK   74  A    between atoms: _169  and  _170
REMARK   75  A    between atoms: _179  and  _181
REMARK   76  A    between atoms: _181  and  _182
REMARK   77  A    between atoms: _181  and  _184
REMARK   78  A    between atoms: _184  and  _185
REMARK   79  A    between atoms: _191  and  _193
REMARK   80  A    between atoms: _193  and  _194
REMARK   81  A    between atoms: _193  and  _196
REMARK   82  A    between atoms: _196  and  _197
REMARK   83  A    between atoms: _200  and  _202
REMARK   84  A    between atoms: _202  and  _203
REMARK   85  A    between atoms: _202  and  _205
REMARK   86  A    between atoms: _205  and  _206
REMARK   87  A    between atoms: _211  and  _213
REMARK   88  A    between atoms: _213  and  _214
REMARK   89  A    between atoms: _213  and  _216
REMARK   90  A    between atoms: _216  and  _217
REMARK   91  A    between atoms: _221  and  _222
REMARK   92  A    between atoms: _227  and  _229
REMARK   93  A    between atoms: _229  and  _230
REMARK   94  A    between atoms: _229  and  _232
REMARK   95  A    between atoms: _232  and  _233
REMARK   96  A    between atoms: _236  and  _238
REMARK   97  A    between atoms: _238  and  _239
REMARK   98  A    between atoms: _238  and  _241
REMARK   99  A    between atoms: _241  and  _242
REMARK  100  A    between atoms: _245  and  _247
REMARK  101  A    between atoms: _247  and  _248
REMARK  102  A    between atoms: _247  and  _250
REMARK  103  A    between atoms: _250  and  _251
REMARK  104  A    between atoms: _254  and  _256
REMARK  105  A    between atoms: _256  and  _257
REMARK  106  A    between atoms: _256  and  _259
REMARK  107  A    between atoms: _259  and  _260
REMARK  108  A    between atoms: _260  and  _261
REMARK  109  A    between atoms: _261  and  _262
REMARK  110  A    between atoms: _262  and  _263
REMARK  111  A    between atoms: _267  and  _269
REMARK  112  A    between atoms: _269  and  _270
REMARK  113  A    between atoms: _269  and  _272
REMARK  114  A    between atoms: _272  and  _273
REMARK  115  A    between atoms: _273  and  _274
REMARK  116  A    between atoms: _277  and  _279
REMARK  117  A    between atoms: _279  and  _280
REMARK  118  A    between atoms: _279  and  _282
REMARK  119  A    between atoms: _282  and  _283
REMARK  120  A    between atoms: _283  and  _284
REMARK  121  A    between atoms: _284  and  _285
REMARK  122  A    between atoms: _294  and  _296
REMARK  123  A    between atoms: _296  and  _297
REMARK  124  A    between atoms: _296  and  _299
REMARK  125  A    between atoms: _299  and  _300
REMARK  126  A    between atoms: _303  and  _305
REMARK  127  A    between atoms: _305  and  _306
REMARK  128  A    between atoms: _310  and  _311
REMARK  129  A    between atoms: _316  and  _318
REMARK  130  A    between atoms: _318  and  _319
REMARK  131  A    between atoms: _322  and  _324
REMARK  132  A    between atoms: _324  and  _325
REMARK  133  A    between atoms: _324  and  _327
REMARK  134  A    between atoms: _327  and  _328
REMARK  135  A    between atoms: _338  and  _340
REMARK  136  A    between atoms: _340  and  _341
REMARK  137  A    between atoms: _340  and  _343
REMARK  138  A    between atoms: _343  and  _344
REMARK  139  A    between atoms: _347  and  _348
REMARK  140  A    between atoms: _353  and  _355
REMARK  141  A    between atoms: _355  and  _356
REMARK  142  A    between atoms: _355  and  _358
REMARK  143  A    between atoms: _358  and  _359
REMARK  144  A    between atoms: _359  and  _360
REMARK  145  A    between atoms: _360  and  _361
REMARK  146  A    between atoms: _370  and  _372
REMARK  147  A    between atoms: _372  and  _373
REMARK  148  A    between atoms: _372  and  _375
REMARK  149  A    between atoms: _375  and  _376
REMARK  150  A    between atoms: _379  and  _381
REMARK  151  A    between atoms: _381  and  _382
REMARK  152  A    between atoms: _381  and  _384
REMARK  153  A    between atoms: _384  and  _385
REMARK  154  A    between atoms: _388  and  _390
REMARK  155  A    between atoms: _390  and  _391
REMARK  156  A    between atoms: _390  and  _393
REMARK  157  A    between atoms: _393  and  _394
REMARK  158  A    between atoms: _397  and  _399
REMARK  159  A    between atoms: _399  and  _400
REMARK  160  A    between atoms: _399  and  _402
REMARK  161  A    between atoms: _402  and  _403
REMARK  162  A    between atoms: _406  and  _408
REMARK  163  A    between atoms: _408  and  _409
REMARK  164  A    between atoms: _408  and  _411
REMARK  165  A    between atoms: _411  and  _412
REMARK  166  A    between atoms: _415  and  _417
REMARK  167  A    between atoms: _417  and  _418
REMARK  168  A    between atoms: _417  and  _420
REMARK  169  A    between atoms: _420  and  _421
REMARK  170  A    between atoms: _424  and  _426
REMARK  171  A    between atoms: _426  and  _427
REMARK  172  A    between atoms: _430  and  _432
REMARK  173  A    between atoms: _432  and  _433
REMARK  174  A    between atoms: _432  and  _435
REMARK  175  A    between atoms: _435  and  _436
REMARK  176  A    between atoms: _439  and  _441
REMARK  177  A    between atoms: _441  and  _442
REMARK  178  A    between atoms: _441  and  _444
REMARK  179  A    between atoms: _444  and  _445
REMARK  180  A    between atoms: _448  and  _450
REMARK  181  A    between atoms: _450  and  _451
REMARK  182  A    between atoms: _450  and  _453
REMARK  183  A    between atoms: _453  and  _454
REMARK  184  A    between atoms: _457  and  _459
REMARK  185  A    between atoms: _459  and  _460
REMARK  186  A    between atoms: _459  and  _462
REMARK  187  A    between atoms: _462  and  _463
REMARK  188  A    between atoms: _463  and  _464
REMARK  189  A    between atoms: _464  and  _465
REMARK  190  A    between atoms: _465  and  _466
REMARK  191  A    between atoms: _470  and  _472
REMARK  192  A    between atoms: _472  and  _473
REMARK  193  A    between atoms: _472  and  _475
REMARK  194  A    between atoms: _475  and  _476
REMARK  195  A    between atoms: _479  and  _481
REMARK  196  A    between atoms: _481  and  _482
REMARK  197  A    between atoms: _481  and  _484
REMARK  198  A    between atoms: _484  and  _485
REMARK  199  A    between atoms: _488  and  _490
REMARK  200  A    between atoms: _490  and  _491
REMARK  201  A    between atoms: _490  and  _493
REMARK  202  A    between atoms: _493  and  _494
REMARK  203  A    between atoms: _498  and  _499
REMARK  204  A    between atoms: _504  and  _506
REMARK  205  A    between atoms: _506  and  _507
REMARK  206  A    between atoms: _506  and  _509
REMARK  207  A    between atoms: _509  and  _510
REMARK  208  A    between atoms: _515  and  _517
REMARK  209  A    between atoms: _517  and  _518
REMARK  210  A    between atoms: _517  and  _520
REMARK  211  A    between atoms: _520  and  _521
REMARK  212  A    between atoms: _521  and  _522
REMARK  213  A    between atoms: _522  and  _523
REMARK  214  A    between atoms: _523  and  _524
REMARK  215  A    between atoms: _528  and  _530
REMARK  216  A    between atoms: _530  and  _531
REMARK  217  A    between atoms: _530  and  _533
REMARK  218  A    between atoms: _533  and  _534
REMARK  219  A    between atoms: _534  and  _535
REMARK  220  A    between atoms: _538  and  _540
REMARK  221  A    between atoms: _540  and  _541
REMARK  222  A    between atoms: _540  and  _543
REMARK  223  A    between atoms: _543  and  _544
REMARK  224  A    between atoms: _547  and  _549
REMARK  225  A    between atoms: _549  and  _550
REMARK  226  A    between atoms: _549  and  _552
REMARK  227  A    between atoms: _552  and  _553
REMARK  228  A    between atoms: _553  and  _554
REMARK  229  A    between atoms: _554  and  _555
REMARK  230  A    between atoms: _564  and  _566
REMARK  231  A    between atoms: _566  and  _567
REMARK  232  A    between atoms: _566  and  _569
REMARK  233  A    between atoms: _569  and  _570
REMARK  234  A    between atoms: _572  and  _574
REMARK  235  A    between atoms: _574  and  _575
REMARK  236  A    between atoms: _574  and  _577
REMARK  237  A    between atoms: _577  and  _578
REMARK  238  A    between atoms: _584  and  _586
REMARK  239  A    between atoms: _586  and  _587
REMARK  240  A    between atoms: _590  and  _592
REMARK  241  A    between atoms: _592  and  _593
REMARK  242  A    between atoms: _592  and  _595
REMARK  243  A    between atoms: _595  and  _596
REMARK  244  A    between atoms: _596  and  _597
REMARK  245  A    between atoms: _600  and  _602
REMARK  246  A    between atoms: _602  and  _603
REMARK  247  A    between atoms: _602  and  _605
REMARK  248  A    between atoms: _605  and  _606
REMARK                            x       y       z     vdW  Elec       q    Type
REMARK                         _______ _______ _______ _____ _____    ______ ____
ROOT
ATOM      1  CA  PHE A   3      11.652  24.614  -2.633  0.00  0.00    +0.153 C 
ENDROOT
BRANCH   1   4
ATOM      2  C   ARG A   2      13.813  25.598  -2.069  0.00  0.00    +0.241 C 
ATOM      3  O   ARG A   2      13.308  26.372  -1.262  0.00  0.00    -0.273 OA
ATOM      4  N   PHE A   3      13.098  24.741  -2.788  0.00  0.00    -0.297 N 
ATOM      5  H   PHE A   3      13.584  24.141  -3.484  0.00  0.00    +0.150 HD
BRANCH   2   6
ATOM      6  CA  ARG A   2      15.318  25.628  -2.360  0.00  0.00    +0.149 C 
BRANCH   6   8
ATOM      7  C   ILE A   1      15.322  27.987  -2.981  0.00  0.00    +0.238 C 
ATOM      8  N   ARG A   2      15.813  26.997  -2.248  0.00  0.00    -0.297 N 
ATOM      9  H   ARG A   2      16.576  27.202  -1.571  0.00  0.00    +0.150 HD
ATOM     10  O   ILE A   1      14.332  27.859  -3.695  0.00  0.00    -0.274 OA
BRANCH   7  11
ATOM     11  CA  ILE A   1      16.048  29.327  -2.882  0.00  0.00    +0.145 C 
BRANCH  11  12
ATOM     12  CB  ILE A   1      15.186  30.316  -2.051  0.00  0.00    +0.025 C 
ATOM     13  CG2 ILE A   1      15.040  29.822  -0.613  0.00  0.00    +0.002 C 
BRANCH  12  14
ATOM     14  CG1 ILE A   1      15.800  31.718  -2.075  0.00  0.00    +0.002 C 
ATOM     15  CD1 ILE A   1      14.800  32.824  -1.804  0.00  0.00    +0.000 C 
ENDBRANCH  12  14
ENDBRANCH  11  12
BRANCH  11  16
ATOM     16  N   ILE A   1      16.296  29.842  -4.226  0.00  0.00    -0.238 NA
ATOM     17  H   ILE A   1      15.491  29.931  -4.879  0.00  0.00    +0.142 HD
ENDBRANCH  11  16
ENDBRANCH   7  11
ENDBRANCH   6   8
BRANCH   6  18
ATOM     18  CB  ARG A   2      16.144  24.705  -1.448  0.00  0.00    +0.033 C 
BRANCH  18  19
ATOM     19  CG  ARG A   2      15.610  23.298  -1.162  0.00  0.00    +0.045 C 
BRANCH  19  20
ATOM     20  CD  ARG A   2      15.890  22.221  -2.207  0.00  0.00    +0.174 C 
BRANCH  20  21
ATOM     21  NE  ARG A   2      17.270  22.047  -2.625  0.00  0.00    -0.265 N 
ATOM     22  HE  ARG A   2      17.926  22.838  -2.465  0.00  0.00    +0.259 HD
ATOM     23  CZ  ARG A   2      17.760  20.940  -3.203  0.00  0.00    +0.342 C 
ATOM     24  NH2 ARG A   2      17.015  19.858  -3.391  0.00  0.00    -0.292 N 
ATOM     25 HH21 ARG A   2      16.020  19.852  -3.087  0.00  0.00    +0.255 HD
ATOM     26 HH22 ARG A   2      17.426  19.016  -3.842  0.00  0.00    +0.255 HD
ATOM     27  NH1 ARG A   2      19.027  20.899  -3.566  0.00  0.00    -0.292 N 
ATOM     28 HH11 ARG A   2      19.641  21.722  -3.404  0.00  0.00    +0.255 HD
ATOM     29 HH12 ARG A   2      19.412  20.043  -4.014  0.00  0.00    +0.255 HD
ENDBRANCH  20  21
ENDBRANCH  19  20
ENDBRANCH  18  19
ENDBRANCH   6  18
ENDBRANCH   2   6
ENDBRANCH   1   4
BRANCH   1  30
ATOM     30  C   PHE A   3      11.287  23.437  -1.745  0.00  0.00    +0.241 C 
ATOM     31  N   LEU A   4      10.141  23.561  -1.087  0.00  0.00    -0.297 N 
ATOM     32  H   LEU A   4       9.702  24.502  -1.025  0.00  0.00    +0.150 HD
ATOM     33  O   PHE A   3      12.012  22.445  -1.678  0.00  0.00    -0.273 OA
BRANCH  31  34
ATOM     34  CA  LEU A   4       9.476  22.444  -0.453  0.00  0.00    +0.149 C 
BRANCH  34  35
ATOM     35  C   LEU A   4       8.195  22.267  -1.249  0.00  0.00    +0.241 C 
ATOM     36  O   LEU A   4       7.480  23.244  -1.478  0.00  0.00    -0.273 OA
ATOM     37  N   ASN A   5       7.937  21.050  -1.718  0.00  0.00    -0.297 N 
ATOM     38  H   ASN A   5       8.599  20.276  -1.508  0.00  0.00    +0.150 HD
BRANCH  37  39
ATOM     39  CA  ASN A   5       6.736  20.767  -2.529  0.00  0.00    +0.158 C 
BRANCH  39  40
ATOM     40  C   ASN A   5       5.999  19.536  -2.026  0.00  0.00    +0.241 C 
ATOM     41  O   ASN A   5       6.614  18.634  -1.469  0.00  0.00    -0.273 OA
ATOM     42  N   THR A   6       4.685  19.524  -2.230  0.00  0.00    -0.296 N 
ATOM     43  H   THR A   6       4.234  20.391  -2.585  0.00  0.00    +0.150 HD
BRANCH  42  44
ATOM     44  CA  THR A   6       3.852  18.371  -1.985  0.00  0.00    +0.164 C 
BRANCH  44  45
ATOM     45  C   THR A   6       2.617  18.487  -2.888  0.00  0.00    +0.229 C 
ATOM     46  O   THR A   6       2.557  19.337  -3.785  0.00  0.00    -0.286 OA
ENDBRANCH  44  45
BRANCH  44  47
ATOM     47  CB  THR A   6       3.479  18.286  -0.463  0.00  0.00    +0.136 C 
ATOM     48  CG2 THR A   6       2.486  19.382  -0.072  0.00  0.00    +0.034 C 
BRANCH  47  49
ATOM     49  OG1 THR A   6       2.940  16.994  -0.150  0.00  0.00    -0.382 OA
ATOM     50  HG1 THR A   6       3.613  16.298  -0.356  0.00  0.00    +0.210 HD
ENDBRANCH  47  49
ENDBRANCH  44  47
ENDBRANCH  42  44
ENDBRANCH  39  40
BRANCH  39  51
ATOM     51  CB  ASN A   5       7.091  20.522  -4.011  0.00  0.00    +0.114 C 
BRANCH  51  52
ATOM     52  CG  ASN A   5       7.431  21.792  -4.761  0.00  0.00    +0.222 C 
ATOM     53  OD1 ASN A   5       8.596  22.160  -4.871  0.00  0.00    -0.275 OA
ATOM     54  ND2 ASN A   5       6.427  22.435  -5.325  0.00  0.00    -0.329 N 
ATOM     55 HD21 ASN A   5       5.454  22.087  -5.205  0.00  0.00    +0.145 HD
ATOM     56 HD22 ASN A   5       6.608  23.290  -5.889  0.00  0.00    +0.145 HD
ENDBRANCH  51  52
ENDBRANCH  39  51
ENDBRANCH  37  39
ENDBRANCH  34  35
BRANCH  34  57
ATOM     57  CB  LEU A   4       9.156  22.754   1.021  0.00  0.00    +0.029 C 
BRANCH  57  58
ATOM     58  CG  LEU A   4       8.541  21.596   1.814  0.00  0.00    +0.002 C 
ATOM     59  CD2 LEU A   4       8.067  21.997   3.231  0.00  0.00    +0.000 C 
ATOM     60  CD1 LEU A   4       9.528  20.421   1.901  0.00  0.00    +0.000 C 
ENDBRANCH  57  58
ENDBRANCH  34  57
ENDBRANCH  31  34
ENDBRANCH   1  30
BRANCH   1  61
ATOM     61  CB  PHE A   3      10.982  24.420  -4.004  0.00  0.00    +0.055 C 
BRANCH  61  62
ATOM     62  CG  PHE A   3      10.465  25.696  -4.615  0.00  0.00    -0.020 A 
ATOM     63  CD2 PHE A   3       9.123  26.018  -4.529  0.00  0.00    -0.004 A 
ATOM     64  CE2 PHE A   3       8.639  27.173  -5.075  0.00  0.00    -0.000 A 
ATOM     65  CZ  PHE A   3       9.484  28.034  -5.738  0.00  0.00    -0.000 A 
ATOM     66  CE1 PHE A   3      10.830  27.736  -5.838  0.00  0.00    -0.000 A 
ATOM     67  CD1 PHE A   3      11.316  26.563  -5.285  0.00  0.00    -0.004 A 
ENDBRANCH  61  62
ENDBRANCH   1  61
TORSDOF 26
REMARK  Name = ../refined-set-2016/4pzv/4pzv_pocket.pdb
REMARK  248 active torsions:
REMARK  status: ('A' for Active; 'I' for Inactive)
REMARK    1  A    between atoms: _1  and  _3
REMARK    2  A    between atoms: _3  and  _4
REMARK    3  A    between atoms: _3  and  _6
REMARK    4  A    between atoms: _6  and  _7
REMARK    5  A    between atoms: _10  and  _12
REMARK    6  A    between atoms: _12  and  _13
REMARK    7  A    between atoms: _12  and  _15
REMARK    8  A    between atoms: _15  and  _16
REMARK    9  A    between atoms: _19  and  _21
REMARK   10  A    between atoms: _21  and  _22
REMARK   11  A    between atoms: _24  and  _26
REMARK   12  A    between atoms: _26  and  _27
REMARK   13  A    between atoms: _26  and  _29
REMARK   14  A    between atoms: _29  and  _30
REMARK   15  A    between atoms: _33  and  _35
REMARK   16  A    between atoms: _35  and  _36
REMARK   17  A    between atoms: _38  and  _40
REMARK   18  A    between atoms: _40  and  _41
REMARK   19  A    between atoms: _40  and  _43
REMARK   20  A    between atoms: _43  and  _44
REMARK   21  A    between atoms: _47  and  _49
REMARK   22  A    between atoms: _49  and  _50
REMARK   23  A    between atoms: _49  and  _52
REMARK   24  A    between atoms: _52  and  _53
REMARK   25  A    between atoms: _58  and  _60
REMARK   26  A    between atoms: _60  and  _61
REMARK   27  A    between atoms: _60  and  _63
REMARK   28  A    between atoms: _63  and  _64
REMARK   29  A    between atoms: _69  and  _70
REMARK   30  A    between atoms: _72  and  _74
REMARK   31  A    between atoms: _74  and  _75
REMARK   32  A    between atoms: _74  and  _77
REMARK   33  A    between atoms: _77  and  _78
REMARK   34  A    between atoms: _80  and  _82
REMARK   35  A    between atoms: _82  and  _83
REMARK   36  A    between atoms: _82  and  _85
REMARK   37  A    between atoms: _85  and  _86
REMARK   38  A    between atoms: _88  and  _90
REMARK   39  A    between atoms: _90  and  _91
REMARK   40  A    between atoms: _90  and  _93
REMARK   41  A    between atoms: _93  and  _94
REMARK   42  A    between atoms: _94  and  _95
REMARK   43  A    between atoms: _95  and  _96
REMARK   44  A    between atoms: _96  and  _97
REMARK   45  A    between atoms: _101  and  _103
REMARK   46  A    between atoms: _103  and  _104
REMARK   47  A    between atoms: _107  and  _109
REMARK   48  A    between atoms: _109  and  _110
REMARK   49  A    between atoms: _109  and  _112
REMARK   50  A    between atoms: _115  and  _117
REMARK   51  A    between atoms: _117  and  _118
REMARK   52  A    between atoms: _117  and  _120
REMARK   53  A    between atoms: _120  and  _121
REMARK   54  A    between atoms: _124  and  _126
REMARK   55  A    between atoms: _126  and  _127
REMARK   56  A    between atoms: _126  and  _129
REMARK   57  A    between atoms: _129  and  _130
REMARK   58  A    between atoms: _130  and  _131
REMARK   59  A    between atoms: _131  and  _132
REMARK   60  A    between atoms: _132  and  _133
REMARK   61  A    between atoms: _137  and  _139
REMARK   62  A    between atoms: _139  and  _140
REMARK   63  A    between atoms: _139  and  _142
REMARK   64  A    between atoms: _142  and  _143
REMARK   65  A    between atoms: _153  and  _155
REMARK   66  A    between atoms: _155  and  _156
REMARK   67  A    between atoms: _155  and  _158
REMARK   68  A    between atoms: _158  and  _159
REMARK   69  A    between atoms: _162  and  _164
REMARK   70  A    between atoms: _164  and  _165
REMARK   71  A    between atoms: _164  and  _167
REMARK   72  A    between atoms: _167  and  _168
REMARK   73  A    between atoms: _168  and  _169
REMARK   74  A    between atoms: _169  and  _170
REMARK   75  A    between atoms: _179  and  _181
REMARK   76  A    between atoms: _181  and  _182
REMARK   77  A    between atoms: _181  and  _184
REMARK   78  A    between atoms: _184  and  _185
REMARK   79  A    between atoms: _191  and  _193
REMARK   80  A    between atoms: _193  and  _194
REMARK   81  A    between atoms: _193  and  _196
REMARK   82  A    between atoms: _196  and  _197
REMARK   83  A    between atoms: _200  and  _202
REMARK   84  A    between atoms: _202  and  _203
REMARK   85  A    between atoms: _202  and  _205
REMARK   86  A    between atoms: _205  and  _206
REMARK   87  A    between atoms: _211  and  _213
REMARK   88  A    between atoms: _213  and  _214
REMARK   89  A    between atoms: _213  and  _216
REMARK   90  A    between atoms: _216  and  _217
REMARK   91  A    between atoms: _221  and  _222
REMARK   92  A    between atoms: _227  and  _229
REMARK   93  A    between atoms: _229  and  _230
REMARK   94  A    between atoms: _229  and  _232
REMARK   95  A    between atoms: _232  and  _233
REMARK   96  A    between atoms: _236  and  _238
REMARK   97  A    between atoms: _238  and  _239
REMARK   98  A    between atoms: _238  and  _241
REMARK   99  A    between atoms: _241  and  _242
REMARK  100  A    between atoms: _245  and  _247
REMARK  101  A    between atoms: _247  and  _248
REMARK  102  A    between atoms: _247  and  _250
REMARK  103  A    between atoms: _250  and  _251
REMARK  104  A    between atoms: _254  and  _256
REMARK  105  A    between atoms: _256  and  _257
REMARK  106  A    between atoms: _256  and  _259
REMARK  107  A    between atoms: _259  and  _260
REMARK  108  A    between atoms: _260  and  _261
REMARK  109  A    between atoms: _261  and  _262
REMARK  110  A    between atoms: _262  and  _263
REMARK  111  A    between atoms: _267  and  _269
REMARK  112  A    between atoms: _269  and  _270
REMARK  113  A    between atoms: _269  and  _272
REMARK  114  A    between atoms: _272  and  _273
REMARK  115  A    between atoms: _273  and  _274
REMARK  116  A    between atoms: _277  and  _279
REMARK  117  A    between atoms: _279  and  _280
REMARK  118  A    between atoms: _279  and  _282
REMARK  119  A    between atoms: _282  and  _283
REMARK  120  A    between atoms: _283  and  _284
REMARK  121  A    between atoms: _284  and  _285
REMARK  122  A    between atoms: _294  and  _296
REMARK  123  A    between atoms: _296  and  _297
REMARK  124  A    between atoms: _296  and  _299
REMARK  125  A    between atoms: _299  and  _300
REMARK  126  A    between atoms: _303  and  _305
REMARK  127  A    between atoms: _305  and  _306
REMARK  128  A    between atoms: _310  and  _311
REMARK  129  A    between atoms: _316  and  _318
REMARK  130  A    between atoms: _318  and  _319
REMARK  131  A    between atoms: _322  and  _324
REMARK  132  A    between atoms: _324  and  _325
REMARK  133  A    between atoms: _324  and  _327
REMARK  134  A    between atoms: _327  and  _328
REMARK  135  A    between atoms: _338  and  _340
REMARK  136  A    between atoms: _340  and  _341
REMARK  137  A    between atoms: _340  and  _343
REMARK  138  A    between atoms: _343  and  _344
REMARK  139  A    between atoms: _347  and  _348
REMARK  140  A    between atoms: _353  and  _355
REMARK  141  A    between atoms: _355  and  _356
REMARK  142  A    between atoms: _355  and  _358
REMARK  143  A    between atoms: _358  and  _359
REMARK  144  A    between atoms: _359  and  _360
REMARK  145  A    between atoms: _360  and  _361
REMARK  146  A    between atoms: _370  and  _372
REMARK  147  A    between atoms: _372  and  _373
REMARK  148  A    between atoms: _372  and  _375
REMARK  149  A    between atoms: _375  and  _376
REMARK  150  A    between atoms: _379  and  _381
REMARK  151  A    between atoms: _381  and  _382
REMARK  152  A    between atoms: _381  and  _384
REMARK  153  A    between atoms: _384  and  _385
REMARK  154  A    between atoms: _388  and  _390
REMARK  155  A    between atoms: _390  and  _391
REMARK  156  A    between atoms: _390  and  _393
REMARK  157  A    between atoms: _393  and  _394
REMARK  158  A    between atoms: _397  and  _399
REMARK  159  A    between atoms: _399  and  _400
REMARK  160  A    between atoms: _399  and  _402
REMARK  161  A    between atoms: _402  and  _403
REMARK  162  A    between atoms: _406  and  _408
REMARK  163  A    between atoms: _408  and  _409
REMARK  164  A    between atoms: _408  and  _411
REMARK  165  A    between atoms: _411  and  _412
REMARK  166  A    between atoms: _415  and  _417
REMARK  167  A    between atoms: _417  and  _418
REMARK  168  A    between atoms: _417  and  _420
REMARK  169  A    between atoms: _420  and  _421
REMARK  170  A    between atoms: _424  and  _426
REMARK  171  A    between atoms: _426  and  _427
REMARK  172  A    between atoms: _430  and  _432
REMARK  173  A    between atoms: _432  and  _433
REMARK  174  A    between atoms: _432  and  _435
REMARK  175  A    between atoms: _435  and  _436
REMARK  176  A    between atoms: _439  and  _441
REMARK  177  A    between atoms: _441  and  _442
REMARK  178  A    between atoms: _441  and  _444
REMARK  179  A    between atoms: _444  and  _445
REMARK  180  A    between atoms: _448  and  _450
REMARK  181  A    between atoms: _450  and  _451
REMARK  182  A    between atoms: _450  and  _453
REMARK  183  A    between atoms: _453  and  _454
REMARK  184  A    between atoms: _457  and  _459
REMARK  185  A    between atoms: _459  and  _460
REMARK  186  A    between atoms: _459  and  _462
REMARK  187  A    between atoms: _462  and  _463
REMARK  188  A    between atoms: _463  and  _464
REMARK  189  A    between atoms: _464  and  _465
REMARK  190  A    between atoms: _465  and  _466
REMARK  191  A    between atoms: _470  and  _472
REMARK  192  A    between atoms: _472  and  _473
REMARK  193  A    between atoms: _472  and  _475
REMARK  194  A    between atoms: _475  and  _476
REMARK  195  A    between atoms: _479  and  _481
REMARK  196  A    between atoms: _481  and  _482
REMARK  197  A    between atoms: _481  and  _484
REMARK  198  A    between atoms: _484  and  _485
REMARK  199  A    between atoms: _488  and  _490
REMARK  200  A    between atoms: _490  and  _491
REMARK  201  A    between atoms: _490  and  _493
REMARK  202  A    between atoms: _493  and  _494
REMARK  203  A    between atoms: _498  and  _499
REMARK  204  A    between atoms: _504  and  _506
REMARK  205  A    between atoms: _506  and  _507
REMARK  206  A    between atoms: _506  and  _509
REMARK  207  A    between atoms: _509  and  _510
REMARK  208  A    between atoms: _515  and  _517
REMARK  209  A    between atoms: _517  and  _518
REMARK  210  A    between atoms: _517  and  _520
REMARK  211  A    between atoms: _520  and  _521
REMARK  212  A    between atoms: _521  and  _522
REMARK  213  A    between atoms: _522  and  _523
REMARK  214  A    between atoms: _523  and  _524
REMARK  215  A    between atoms: _528  and  _530
REMARK  216  A    between atoms: _530  and  _531
REMARK  217  A    between atoms: _530  and  _533
REMARK  218  A    between atoms: _533  and  _534
REMARK  219  A    between atoms: _534  and  _535
REMARK  220  A    between atoms: _538  and  _540
REMARK  221  A    between atoms: _540  and  _541
REMARK  222  A    between atoms: _540  and  _543
REMARK  223  A    between atoms: _543  and  _544
REMARK  224  A    between atoms: _547  and  _549
REMARK  225  A    between atoms: _549  and  _550
REMARK  226  A    between atoms: _549  and  _552
REMARK  227  A    between atoms: _552  and  _553
REMARK  228  A    between atoms: _553  and  _554
REMARK  229  A    between atoms: _554  and  _555
REMARK  230  A    between atoms: _564  and  _566
REMARK  231  A    between atoms: _566  and  _567
REMARK  232  A    between atoms: _566  and  _569
REMARK  233  A    between atoms: _569  and  _570
REMARK  234  A    between atoms: _572  and  _574
REMARK  235  A    between atoms: _574  and  _575
REMARK  236  A    between atoms: _574  and  _577
REMARK  237  A    between atoms: _577  and  _578
REMARK  238  A    between atoms: _584  and  _586
REMARK  239  A    between atoms: _586  and  _587
REMARK  240  A    between atoms: _590  and  _592
REMARK  241  A    between atoms: _592  and  _593
REMARK  242  A    between atoms: _592  and  _595
REMARK  243  A    between atoms: _595  and  _596
REMARK  244  A    between atoms: _596  and  _597
REMARK  245  A    between atoms: _600  and  _602
REMARK  246  A    between atoms: _602  and  _603
REMARK  247  A    between atoms: _602  and  _605
REMARK  248  A    between atoms: _605  and  _606
REMARK                            x       y       z     vdW  Elec       q    Type
REMARK                         _______ _______ _______ _____ _____    ______ ____
ROOT
ATOM      1  N   PRO A   1     -13.941  23.268 -11.642  0.00  0.00    -0.212 NA
ATOM      2  CA  PRO A   1     -12.525  23.628 -11.749  0.00  0.00    +0.137 C 
ATOM      3  CB  PRO A   1     -12.160  23.151 -13.147  0.00  0.00    +0.027 C 
ATOM      4  CG  PRO A   1     -13.070  22.017 -13.380  0.00  0.00    +0.021 C 
ATOM      5  CD  PRO A   1     -14.366  22.419 -12.763  0.00  0.00    +0.089 C 
ENDROOT
BRANCH   2   6
ATOM      6  C   PRO A   1     -12.264  25.117 -11.611  0.00  0.00    +0.224 C 
ATOM      7  O   PRO A   1     -11.339  25.517 -10.904  0.00  0.00    -0.287 OA
ENDBRANCH   2   6
TORSDOF 1
REMARK  Name = ../refined-set-2016/4pzv/4pzv_pocket.pdb
REMARK  248 active torsions:
REMARK  status: ('A' for Active; 'I' for Inactive)
REMARK    1  A    between atoms: _1  and  _3
REMARK    2  A    between atoms: _3  and  _4
REMARK    3  A    between atoms: _3  and  _6
REMARK    4  A    between atoms: _6  and  _7
REMARK    5  A    between atoms: _10  and  _12
REMARK    6  A    between atoms: _12  and  _13
REMARK    7  A    between atoms: _12  and  _15
REMARK    8  A    between atoms: _15  and  _16
REMARK    9  A    between atoms: _19  and  _21
REMARK   10  A    between atoms: _21  and  _22
REMARK   11  A    between atoms: _24  and  _26
REMARK   12  A    between atoms: _26  and  _27
REMARK   13  A    between atoms: _26  and  _29
REMARK   14  A    between atoms: _29  and  _30
REMARK   15  A    between atoms: _33  and  _35
REMARK   16  A    between atoms: _35  and  _36
REMARK   17  A    between atoms: _38  and  _40
REMARK   18  A    between atoms: _40  and  _41
REMARK   19  A    between atoms: _40  and  _43
REMARK   20  A    between atoms: _43  and  _44
REMARK   21  A    between atoms: _47  and  _49
REMARK   22  A    between atoms: _49  and  _50
REMARK   23  A    between atoms: _49  and  _52
REMARK   24  A    between atoms: _52  and  _53
REMARK   25  A    between atoms: _58  and  _60
REMARK   26  A    between atoms: _60  and  _61
REMARK   27  A    between atoms: _60  and  _63
REMARK   28  A    between atoms: _63  and  _64
REMARK   29  A    between atoms: _69  and  _70
REMARK   30  A    between atoms: _72  and  _74
REMARK   31  A    between atoms: _74  and  _75
REMARK   32  A    between atoms: _74  and  _77
REMARK   33  A    between atoms: _77  and  _78
REMARK   34  A    between atoms: _80  and  _82
REMARK   35  A    between atoms: _82  and  _83
REMARK   36  A    between atoms: _82  and  _85
REMARK   37  A    between atoms: _85  and  _86
REMARK   38  A    between atoms: _88  and  _90
REMARK   39  A    between atoms: _90  and  _91
REMARK   40  A    between atoms: _90  and  _93
REMARK   41  A    between atoms: _93  and  _94
REMARK   42  A    between atoms: _94  and  _95
REMARK   43  A    between atoms: _95  and  _96
REMARK   44  A    between atoms: _96  and  _97
REMARK   45  A    between atoms: _101  and  _103
REMARK   46  A    between atoms: _103  and  _104
REMARK   47  A    between atoms: _107  and  _109
REMARK   48  A    between atoms: _109  and  _110
REMARK   49  A    between atoms: _109  and  _112
REMARK   50  A    between atoms: _115  and  _117
REMARK   51  A    between atoms: _117  and  _118
REMARK   52  A    between atoms: _117  and  _120
REMARK   53  A    between atoms: _120  and  _121
REMARK   54  A    between atoms: _124  and  _126
REMARK   55  A    between atoms: _126  and  _127
REMARK   56  A    between atoms: _126  and  _129
REMARK   57  A    between atoms: _129  and  _130
REMARK   58  A    between atoms: _130  and  _131
REMARK   59  A    between atoms: _131  and  _132
REMARK   60  A    between atoms: _132  and  _133
REMARK   61  A    between atoms: _137  and  _139
REMARK   62  A    between atoms: _139  and  _140
REMARK   63  A    between atoms: _139  and  _142
REMARK   64  A    between atoms: _142  and  _143
REMARK   65  A    between atoms: _153  and  _155
REMARK   66  A    between atoms: _155  and  _156
REMARK   67  A    between atoms: _155  and  _158
REMARK   68  A    between atoms: _158  and  _159
REMARK   69  A    between atoms: _162  and  _164
REMARK   70  A    between atoms: _164  and  _165
REMARK   71  A    between atoms: _164  and  _167
REMARK   72  A    between atoms: _167  and  _168
REMARK   73  A    between atoms: _168  and  _169
REMARK   74  A    between atoms: _169  and  _170
REMARK   75  A    between atoms: _179  and  _181
REMARK   76  A    between atoms: _181  and  _182
REMARK   77  A    between atoms: _181  and  _184
REMARK   78  A    between atoms: _184  and  _185
REMARK   79  A    between atoms: _191  and  _193
REMARK   80  A    between atoms: _193  and  _194
REMARK   81  A    between atoms: _193  and  _196
REMARK   82  A    between atoms: _196  and  _197
REMARK   83  A    between atoms: _200  and  _202
REMARK   84  A    between atoms: _202  and  _203
REMARK   85  A    between atoms: _202  and  _205
REMARK   86  A    between atoms: _205  and  _206
REMARK   87  A    between atoms: _211  and  _213
REMARK   88  A    between atoms: _213  and  _214
REMARK   89  A    between atoms: _213  and  _216
REMARK   90  A    between atoms: _216  and  _217
REMARK   91  A    between atoms: _221  and  _222
REMARK   92  A    between atoms: _227  and  _229
REMARK   93  A    between atoms: _229  and  _230
REMARK   94  A    between atoms: _229  and  _232
REMARK   95  A    between atoms: _232  and  _233
REMARK   96  A    between atoms: _236  and  _238
REMARK   97  A    between atoms: _238  and  _239
REMARK   98  A    between atoms: _238  and  _241
REMARK   99  A    between atoms: _241  and  _242
REMARK  100  A    between atoms: _245  and  _247
REMARK  101  A    between atoms: _247  and  _248
REMARK  102  A    between atoms: _247  and  _250
REMARK  103  A    between atoms: _250  and  _251
REMARK  104  A    between atoms: _254  and  _256
REMARK  105  A    between atoms: _256  and  _257
REMARK  106  A    between atoms: _256  and  _259
REMARK  107  A    between atoms: _259  and  _260
REMARK  108  A    between atoms: _260  and  _261
REMARK  109  A    between atoms: _261  and  _262
REMARK  110  A    between atoms: _262  and  _263
REMARK  111  A    between atoms: _267  and  _269
REMARK  112  A    between atoms: _269  and  _270
REMARK  113  A    between atoms: _269  and  _272
REMARK  114  A    between atoms: _272  and  _273
REMARK  115  A    between atoms: _273  and  _274
REMARK  116  A    between atoms: _277  and  _279
REMARK  117  A    between atoms: _279  and  _280
REMARK  118  A    between atoms: _279  and  _282
REMARK  119  A    between atoms: _282  and  _283
REMARK  120  A    between atoms: _283  and  _284
REMARK  121  A    between atoms: _284  and  _285
REMARK  122  A    between atoms: _294  and  _296
REMARK  123  A    between atoms: _296  and  _297
REMARK  124  A    between atoms: _296  and  _299
REMARK  125  A    between atoms: _299  and  _300
REMARK  126  A    between atoms: _303  and  _305
REMARK  127  A    between atoms: _305  and  _306
REMARK  128  A    between atoms: _310  and  _311
REMARK  129  A    between atoms: _316  and  _318
REMARK  130  A    between atoms: _318  and  _319
REMARK  131  A    between atoms: _322  and  _324
REMARK  132  A    between atoms: _324  and  _325
REMARK  133  A    between atoms: _324  and  _327
REMARK  134  A    between atoms: _327  and  _328
REMARK  135  A    between atoms: _338  and  _340
REMARK  136  A    between atoms: _340  and  _341
REMARK  137  A    between atoms: _340  and  _343
REMARK  138  A    between atoms: _343  and  _344
REMARK  139  A    between atoms: _347  and  _348
REMARK  140  A    between atoms: _353  and  _355
REMARK  141  A    between atoms: _355  and  _356
REMARK  142  A    between atoms: _355  and  _358
REMARK  143  A    between atoms: _358  and  _359
REMARK  144  A    between atoms: _359  and  _360
REMARK  145  A    between atoms: _360  and  _361
REMARK  146  A    between atoms: _370  and  _372
REMARK  147  A    between atoms: _372  and  _373
REMARK  148  A    between atoms: _372  and  _375
REMARK  149  A    between atoms: _375  and  _376
REMARK  150  A    between atoms: _379  and  _381
REMARK  151  A    between atoms: _381  and  _382
REMARK  152  A    between atoms: _381  and  _384
REMARK  153  A    between atoms: _384  and  _385
REMARK  154  A    between atoms: _388  and  _390
REMARK  155  A    between atoms: _390  and  _391
REMARK  156  A    between atoms: _390  and  _393
REMARK  157  A    between atoms: _393  and  _394
REMARK  158  A    between atoms: _397  and  _399
REMARK  159  A    between atoms: _399  and  _400
REMARK  160  A    between atoms: _399  and  _402
REMARK  161  A    between atoms: _402  and  _403
REMARK  162  A    between atoms: _406  and  _408
REMARK  163  A    between atoms: _408  and  _409
REMARK  164  A    between atoms: _408  and  _411
REMARK  165  A    between atoms: _411  and  _412
REMARK  166  A    between atoms: _415  and  _417
REMARK  167  A    between atoms: _417  and  _418
REMARK  168  A    between atoms: _417  and  _420
REMARK  169  A    between atoms: _420  and  _421
REMARK  170  A    between atoms: _424  and  _426
REMARK  171  A    between atoms: _426  and  _427
REMARK  172  A    between atoms: _430  and  _432
REMARK  173  A    between atoms: _432  and  _433
REMARK  174  A    between atoms: _432  and  _435
REMARK  175  A    between atoms: _435  and  _436
REMARK  176  A    between atoms: _439  and  _441
REMARK  177  A    between atoms: _441  and  _442
REMARK  178  A    between atoms: _441  and  _444
REMARK  179  A    between atoms: _444  and  _445
REMARK  180  A    between atoms: _448  and  _450
REMARK  181  A    between atoms: _450  and  _451
REMARK  182  A    between atoms: _450  and  _453
REMARK  183  A    between atoms: _453  and  _454
REMARK  184  A    between atoms: _457  and  _459
REMARK  185  A    between atoms: _459  and  _460
REMARK  186  A    between atoms: _459  and  _462
REMARK  187  A    between atoms: _462  and  _463
REMARK  188  A    between atoms: _463  and  _464
REMARK  189  A    between atoms: _464  and  _465
REMARK  190  A    between atoms: _465  and  _466
REMARK  191  A    between atoms: _470  and  _472
REMARK  192  A    between atoms: _472  and  _473
REMARK  193  A    between atoms: _472  and  _475
REMARK  194  A    between atoms: _475  and  _476
REMARK  195  A    between atoms: _479  and  _481
REMARK  196  A    between atoms: _481  and  _482
REMARK  197  A    between atoms: _481  and  _484
REMARK  198  A    between atoms: _484  and  _485
REMARK  199  A    between atoms: _488  and  _490
REMARK  200  A    between atoms: _490  and  _491
REMARK  201  A    between atoms: _490  and  _493
REMARK  202  A    between atoms: _493  and  _494
REMARK  203  A    between atoms: _498  and  _499
REMARK  204  A    between atoms: _504  and  _506
REMARK  205  A    between atoms: _506  and  _507
REMARK  206  A    between atoms: _506  and  _509
REMARK  207  A    between atoms: _509  and  _510
REMARK  208  A    between atoms: _515  and  _517
REMARK  209  A    between atoms: _517  and  _518
REMARK  210  A    between atoms: _517  and  _520
REMARK  211  A    between atoms: _520  and  _521
REMARK  212  A    between atoms: _521  and  _522
REMARK  213  A    between atoms: _522  and  _523
REMARK  214  A    between atoms: _523  and  _524
REMARK  215  A    between atoms: _528  and  _530
REMARK  216  A    between atoms: _530  and  _531
REMARK  217  A    between atoms: _530  and  _533
REMARK  218  A    between atoms: _533  and  _534
REMARK  219  A    between atoms: _534  and  _535
REMARK  220  A    between atoms: _538  and  _540
REMARK  221  A    between atoms: _540  and  _541
REMARK  222  A    between atoms: _540  and  _543
REMARK  223  A    between atoms: _543  and  _544
REMARK  224  A    between atoms: _547  and  _549
REMARK  225  A    between atoms: _549  and  _550
REMARK  226  A    between atoms: _549  and  _552
REMARK  227  A    between atoms: _552  and  _553
REMARK  228  A    between atoms: _553  and  _554
REMARK  229  A    between atoms: _554  and  _555
REMARK  230  A    between atoms: _564  and  _566
REMARK  231  A    between atoms: _566  and  _567
REMARK  232  A    between atoms: _566  and  _569
REMARK  233  A    between atoms: _569  and  _570
REMARK  234  A    between atoms: _572  and  _574
REMARK  235  A    between atoms: _574  and  _575
REMARK  236  A    between atoms: _574  and  _577
REMARK  237  A    between atoms: _577  and  _578
REMARK  238  A    between atoms: _584  and  _586
REMARK  239  A    between atoms: _586  and  _587
REMARK  240  A    between atoms: _590  and  _592
REMARK  241  A    between atoms: _592  and  _593
REMARK  242  A    between atoms: _592  and  _595
REMARK  243  A    between atoms: _595  and  _596
REMARK  244  A    between atoms: _596  and  _597
REMARK  245  A    between atoms: _600  and  _602
REMARK  246  A    between atoms: _602  and  _603
REMARK  247  A    between atoms: _602  and  _605
REMARK  248  A    between atoms: _605  and  _606
REMARK                            x       y       z     vdW  Elec       q    Type
REMARK                         _______ _______ _______ _____ _____    ______ ____
ROOT
ATOM      1  C   LEU A   1     -10.500  26.631  -7.352  0.00  0.00    +0.238 C 
ATOM      2  O   LEU A   1      -9.748  26.881  -6.407  0.00  0.00    -0.274 OA
ATOM      3  N   LEU A   2     -10.294  27.109  -8.576  0.00  0.00    -0.298 N 
ATOM      4  H   LEU A   2     -10.951  26.866  -9.345  0.00  0.00    +0.150 HD
ENDROOT
BRANCH   1   5
ATOM      5  CA  LEU A   1     -11.727  25.744  -7.156  0.00  0.00    +0.145 C 
BRANCH   5   6
ATOM      6  N   LEU A   1     -12.831  26.207  -7.970  0.00  0.00    -0.238 NA
ATOM      7  H   LEU A   1     -13.238  25.568  -8.683  0.00  0.00    +0.142 HD
ENDBRANCH   5   6
BRANCH   5   8
ATOM      8  CB  LEU A   1     -11.381  24.308  -7.520  0.00  0.00    +0.026 C 
BRANCH   8   9
ATOM      9  CG  LEU A   1     -10.150  23.760  -6.808  0.00  0.00    +0.002 C 
ATOM     10  CD2 LEU A   1     -10.396  23.713  -5.304  0.00  0.00    +0.000 C 
ATOM     11  CD1 LEU A   1      -9.800  22.389  -7.352  0.00  0.00    +0.000 C 
ENDBRANCH   8   9
ENDBRANCH   5   8
ENDBRANCH   1   5
BRANCH   3  12
ATOM     12  CA  LEU A   2      -9.143  27.977  -8.845  0.00  0.00    +0.137 C 
BRANCH  12  13
ATOM     13  C   LEU A   2      -9.280  29.278  -8.069  0.00  0.00    +0.227 C 
ATOM     14  O   LEU A   2      -8.317  29.755  -7.465  0.00  0.00    -0.286 OA
ENDBRANCH  12  13
BRANCH  12  15
ATOM     15  CB  LEU A   2      -8.971  28.250 -10.346  0.00  0.00    +0.028 C 
BRANCH  15  16
ATOM     16  CG  LEU A   2      -7.818  29.220 -10.656  0.00  0.00    +0.002 C 
ATOM     17  CD2 LEU A   2      -6.483  28.576 -10.307  0.00  0.00    +0.000 C 
ATOM     18  CD1 LEU A   2      -7.824  29.693 -12.092  0.00  0.00    +0.000 C 
ENDBRANCH  15  16
ENDBRANCH  12  15
ENDBRANCH   3  12
TORSDOF 8
REMARK  Name = ../refined-set-2016/4pzv/4pzv_pocket.pdb
REMARK  248 active torsions:
REMARK  status: ('A' for Active; 'I' for Inactive)
REMARK    1  A    between atoms: _1  and  _3
REMARK    2  A    between atoms: _3  and  _4
REMARK    3  A    between atoms: _3  and  _6
REMARK    4  A    between atoms: _6  and  _7
REMARK    5  A    between atoms: _10  and  _12
REMARK    6  A    between atoms: _12  and  _13
REMARK    7  A    between atoms: _12  and  _15
REMARK    8  A    between atoms: _15  and  _16
REMARK    9  A    between atoms: _19  and  _21
REMARK   10  A    between atoms: _21  and  _22
REMARK   11  A    between atoms: _24  and  _26
REMARK   12  A    between atoms: _26  and  _27
REMARK   13  A    between atoms: _26  and  _29
REMARK   14  A    between atoms: _29  and  _30
REMARK   15  A    between atoms: _33  and  _35
REMARK   16  A    between atoms: _35  and  _36
REMARK   17  A    between atoms: _38  and  _40
REMARK   18  A    between atoms: _40  and  _41
REMARK   19  A    between atoms: _40  and  _43
REMARK   20  A    between atoms: _43  and  _44
REMARK   21  A    between atoms: _47  and  _49
REMARK   22  A    between atoms: _49  and  _50
REMARK   23  A    between atoms: _49  and  _52
REMARK   24  A    between atoms: _52  and  _53
REMARK   25  A    between atoms: _58  and  _60
REMARK   26  A    between atoms: _60  and  _61
REMARK   27  A    between atoms: _60  and  _63
REMARK   28  A    between atoms: _63  and  _64
REMARK   29  A    between atoms: _69  and  _70
REMARK   30  A    between atoms: _72  and  _74
REMARK   31  A    between atoms: _74  and  _75
REMARK   32  A    between atoms: _74  and  _77
REMARK   33  A    between atoms: _77  and  _78
REMARK   34  A    between atoms: _80  and  _82
REMARK   35  A    between atoms: _82  and  _83
REMARK   36  A    between atoms: _82  and  _85
REMARK   37  A    between atoms: _85  and  _86
REMARK   38  A    between atoms: _88  and  _90
REMARK   39  A    between atoms: _90  and  _91
REMARK   40  A    between atoms: _90  and  _93
REMARK   41  A    between atoms: _93  and  _94
REMARK   42  A    between atoms: _94  and  _95
REMARK   43  A    between atoms: _95  and  _96
REMARK   44  A    between atoms: _96  and  _97
REMARK   45  A    between atoms: _101  and  _103
REMARK   46  A    between atoms: _103  and  _104
REMARK   47  A    between atoms: _107  and  _109
REMARK   48  A    between atoms: _109  and  _110
REMARK   49  A    between atoms: _109  and  _112
REMARK   50  A    between atoms: _115  and  _117
REMARK   51  A    between atoms: _117  and  _118
REMARK   52  A    between atoms: _117  and  _120
REMARK   53  A    between atoms: _120  and  _121
REMARK   54  A    between atoms: _124  and  _126
REMARK   55  A    between atoms: _126  and  _127
REMARK   56  A    between atoms: _126  and  _129
REMARK   57  A    between atoms: _129  and  _130
REMARK   58  A    between atoms: _130  and  _131
REMARK   59  A    between atoms: _131  and  _132
REMARK   60  A    between atoms: _132  and  _133
REMARK   61  A    between atoms: _137  and  _139
REMARK   62  A    between atoms: _139  and  _140
REMARK   63  A    between atoms: _139  and  _142
REMARK   64  A    between atoms: _142  and  _143
REMARK   65  A    between atoms: _153  and  _155
REMARK   66  A    between atoms: _155  and  _156
REMARK   67  A    between atoms: _155  and  _158
REMARK   68  A    between atoms: _158  and  _159
REMARK   69  A    between atoms: _162  and  _164
REMARK   70  A    between atoms: _164  and  _165
REMARK   71  A    between atoms: _164  and  _167
REMARK   72  A    between atoms: _167  and  _168
REMARK   73  A    between atoms: _168  and  _169
REMARK   74  A    between atoms: _169  and  _170
REMARK   75  A    between atoms: _179  and  _181
REMARK   76  A    between atoms: _181  and  _182
REMARK   77  A    between atoms: _181  and  _184
REMARK   78  A    between atoms: _184  and  _185
REMARK   79  A    between atoms: _191  and  _193
REMARK   80  A    between atoms: _193  and  _194
REMARK   81  A    between atoms: _193  and  _196
REMARK   82  A    between atoms: _196  and  _197
REMARK   83  A    between atoms: _200  and  _202
REMARK   84  A    between atoms: _202  and  _203
REMARK   85  A    between atoms: _202  and  _205
REMARK   86  A    between atoms: _205  and  _206
REMARK   87  A    between atoms: _211  and  _213
REMARK   88  A    between atoms: _213  and  _214
REMARK   89  A    between atoms: _213  and  _216
REMARK   90  A    between atoms: _216  and  _217
REMARK   91  A    between atoms: _221  and  _222
REMARK   92  A    between atoms: _227  and  _229
REMARK   93  A    between atoms: _229  and  _230
REMARK   94  A    between atoms: _229  and  _232
REMARK   95  A    between atoms: _232  and  _233
REMARK   96  A    between atoms: _236  and  _238
REMARK   97  A    between atoms: _238  and  _239
REMARK   98  A    between atoms: _238  and  _241
REMARK   99  A    between atoms: _241  and  _242
REMARK  100  A    between atoms: _245  and  _247
REMARK  101  A    between atoms: _247  and  _248
REMARK  102  A    between atoms: _247  and  _250
REMARK  103  A    between atoms: _250  and  _251
REMARK  104  A    between atoms: _254  and  _256
REMARK  105  A    between atoms: _256  and  _257
REMARK  106  A    between atoms: _256  and  _259
REMARK  107  A    between atoms: _259  and  _260
REMARK  108  A    between atoms: _260  and  _261
REMARK  109  A    between atoms: _261  and  _262
REMARK  110  A    between atoms: _262  and  _263
REMARK  111  A    between atoms: _267  and  _269
REMARK  112  A    between atoms: _269  and  _270
REMARK  113  A    between atoms: _269  and  _272
REMARK  114  A    between atoms: _272  and  _273
REMARK  115  A    between atoms: _273  and  _274
REMARK  116  A    between atoms: _277  and  _279
REMARK  117  A    between atoms: _279  and  _280
REMARK  118  A    between atoms: _279  and  _282
REMARK  119  A    between atoms: _282  and  _283
REMARK  120  A    between atoms: _283  and  _284
REMARK  121  A    between atoms: _284  and  _285
REMARK  122  A    between atoms: _294  and  _296
REMARK  123  A    between atoms: _296  and  _297
REMARK  124  A    between atoms: _296  and  _299
REMARK  125  A    between atoms: _299  and  _300
REMARK  126  A    between atoms: _303  and  _305
REMARK  127  A    between atoms: _305  and  _306
REMARK  128  A    between atoms: _310  and  _311
REMARK  129  A    between atoms: _316  and  _318
REMARK  130  A    between atoms: _318  and  _319
REMARK  131  A    between atoms: _322  and  _324
REMARK  132  A    between atoms: _324  and  _325
REMARK  133  A    between atoms: _324  and  _327
REMARK  134  A    between atoms: _327  and  _328
REMARK  135  A    between atoms: _338  and  _340
REMARK  136  A    between atoms: _340  and  _341
REMARK  137  A    between atoms: _340  and  _343
REMARK  138  A    between atoms: _343  and  _344
REMARK  139  A    between atoms: _347  and  _348
REMARK  140  A    between atoms: _353  and  _355
REMARK  141  A    between atoms: _355  and  _356
REMARK  142  A    between atoms: _355  and  _358
REMARK  143  A    between atoms: _358  and  _359
REMARK  144  A    between atoms: _359  and  _360
REMARK  145  A    between atoms: _360  and  _361
REMARK  146  A    between atoms: _370  and  _372
REMARK  147  A    between atoms: _372  and  _373
REMARK  148  A    between atoms: _372  and  _375
REMARK  149  A    between atoms: _375  and  _376
REMARK  150  A    between atoms: _379  and  _381
REMARK  151  A    between atoms: _381  and  _382
REMARK  152  A    between atoms: _381  and  _384
REMARK  153  A    between atoms: _384  and  _385
REMARK  154  A    between atoms: _388  and  _390
REMARK  155  A    between atoms: _390  and  _391
REMARK  156  A    between atoms: _390  and  _393
REMARK  157  A    between atoms: _393  and  _394
REMARK  158  A    between atoms: _397  and  _399
REMARK  159  A    between atoms: _399  and  _400
REMARK  160  A    between atoms: _399  and  _402
REMARK  161  A    between atoms: _402  and  _403
REMARK  162  A    between atoms: _406  and  _408
REMARK  163  A    between atoms: _408  and  _409
REMARK  164  A    between atoms: _408  and  _411
REMARK  165  A    between atoms: _411  and  _412
REMARK  166  A    between atoms: _415  and  _417
REMARK  167  A    between atoms: _417  and  _418
REMARK  168  A    between atoms: _417  and  _420
REMARK  169  A    between atoms: _420  and  _421
REMARK  170  A    between atoms: _424  and  _426
REMARK  171  A    between atoms: _426  and  _427
REMARK  172  A    between atoms: _430  and  _432
REMARK  173  A    between atoms: _432  and  _433
REMARK  174  A    between atoms: _432  and  _435
REMARK  175  A    between atoms: _435  and  _436
REMARK  176  A    between atoms: _439  and  _441
REMARK  177  A    between atoms: _441  and  _442
REMARK  178  A    between atoms: _441  and  _444
REMARK  179  A    between atoms: _444  and  _445
REMARK  180  A    between atoms: _448  and  _450
REMARK  181  A    between atoms: _450  and  _451
REMARK  182  A    between atoms: _450  and  _453
REMARK  183  A    between atoms: _453  and  _454
REMARK  184  A    between atoms: _457  and  _459
REMARK  185  A    between atoms: _459  and  _460
REMARK  186  A    between atoms: _459  and  _462
REMARK  187  A    between atoms: _462  and  _463
REMARK  188  A    between atoms: _463  and  _464
REMARK  189  A    between atoms: _464  and  _465
REMARK  190  A    between atoms: _465  and  _466
REMARK  191  A    between atoms: _470  and  _472
REMARK  192  A    between atoms: _472  and  _473
REMARK  193  A    between atoms: _472  and  _475
REMARK  194  A    between atoms: _475  and  _476
REMARK  195  A    between atoms: _479  and  _481
REMARK  196  A    between atoms: _481  and  _482
REMARK  197  A    between atoms: _481  and  _484
REMARK  198  A    between atoms: _484  and  _485
REMARK  199  A    between atoms: _488  and  _490
REMARK  200  A    between atoms: _490  and  _491
REMARK  201  A    between atoms: _490  and  _493
REMARK  202  A    between atoms: _493  and  _494
REMARK  203  A    between atoms: _498  and  _499
REMARK  204  A    between atoms: _504  and  _506
REMARK  205  A    between atoms: _506  and  _507
REMARK  206  A    between atoms: _506  and  _509
REMARK  207  A    between atoms: _509  and  _510
REMARK  208  A    between atoms: _515  and  _517
REMARK  209  A    between atoms: _517  and  _518
REMARK  210  A    between atoms: _517  and  _520
REMARK  211  A    between atoms: _520  and  _521
REMARK  212  A    between atoms: _521  and  _522
REMARK  213  A    between atoms: _522  and  _523
REMARK  214  A    between atoms: _523  and  _524
REMARK  215  A    between atoms: _528  and  _530
REMARK  216  A    between atoms: _530  and  _531
REMARK  217  A    between atoms: _530  and  _533
REMARK  218  A    between atoms: _533  and  _534
REMARK  219  A    between atoms: _534  and  _535
REMARK  220  A    between atoms: _538  and  _540
REMARK  221  A    between atoms: _540  and  _541
REMARK  222  A    between atoms: _540  and  _543
REMARK  223  A    between atoms: _543  and  _544
REMARK  224  A    between atoms: _547  and  _549
REMARK  225  A    between atoms: _549  and  _550
REMARK  226  A    between atoms: _549  and  _552
REMARK  227  A    between atoms: _552  and  _553
REMARK  228  A    between atoms: _553  and  _554
REMARK  229  A    between atoms: _554  and  _555
REMARK  230  A    between atoms: _564  and  _566
REMARK  231  A    between atoms: _566  and  _567
REMARK  232  A    between atoms: _566  and  _569
REMARK  233  A    between atoms: _569  and  _570
REMARK  234  A    between atoms: _572  and  _574
REMARK  235  A    between atoms: _574  and  _575
REMARK  236  A    between atoms: _574  and  _577
REMARK  237  A    between atoms: _577  and  _578
REMARK  238  A    between atoms: _584  and  _586
REMARK  239  A    between atoms: _586  and  _587
REMARK  240  A    between atoms: _590  and  _592
REMARK  241  A    between atoms: _592  and  _593
REMARK  242  A    between atoms: _592  and  _595
REMARK  243  A    between atoms: _595  and  _596
REMARK  244  A    between atoms: _596  and  _597
REMARK  245  A    between atoms: _600  and  _602
REMARK  246  A    between atoms: _602  and  _603
REMARK  247  A    between atoms: _602  and  _605
REMARK  248  A    between atoms: _605  and  _606
REMARK                            x       y       z     vdW  Elec       q    Type
REMARK                         _______ _______ _______ _____ _____    ______ ____
ROOT
ATOM      1  C   LEU A   1      -6.182  29.846  -4.297  0.00  0.00    +0.238 C 
ATOM      2  O   LEU A   1      -5.324  30.049  -3.446  0.00  0.00    -0.274 OA
ATOM      3  N   LYS A   2      -6.579  30.767  -5.169  0.00  0.00    -0.298 N 
ATOM      4  H   LYS A   2      -7.293  30.515  -5.882  0.00  0.00    +0.150 HD
ENDROOT
BRANCH   1   5
ATOM      5  CA  LEU A   1      -6.850  28.491  -4.395  0.00  0.00    +0.145 C 
BRANCH   5   6
ATOM      6  N   LEU A   1      -8.287  28.652  -4.587  0.00  0.00    -0.238 NA
ATOM      7  H   LEU A   1      -8.746  28.252  -5.430  0.00  0.00    +0.142 HD
ENDBRANCH   5   6
BRANCH   5   8
ATOM      8  CB  LEU A   1      -6.228  27.673  -5.529  0.00  0.00    +0.026 C 
BRANCH   8   9
ATOM      9  CG  LEU A   1      -6.629  26.200  -5.549  0.00  0.00    +0.002 C 
ATOM     10  CD2 LEU A   1      -6.426  25.575  -4.184  0.00  0.00    +0.000 C 
ATOM     11  CD1 LEU A   1      -5.843  25.430  -6.625  0.00  0.00    +0.000 C 
ENDBRANCH   8   9
ENDBRANCH   5   8
ENDBRANCH   1   5
BRANCH   3  12
ATOM     12  CA  LYS A   2      -6.039  32.125  -5.152  0.00  0.00    +0.137 C 
BRANCH  12  13
ATOM     13  C   LYS A   2      -6.378  32.817  -3.827  0.00  0.00    +0.227 C 
ATOM     14  O   LYS A   2      -5.533  33.475  -3.215  0.00  0.00    -0.286 OA
ENDBRANCH  12  13
BRANCH  12  15
ATOM     15  CB  LYS A   2      -6.608  32.942  -6.308  0.00  0.00    +0.028 C 
BRANCH  15  16
ATOM     16  CG  LYS A   2      -6.330  32.356  -7.691  0.00  0.00    -0.000 C 
BRANCH  16  17
ATOM     17  CD  LYS A   2      -6.849  33.288  -8.757  0.00  0.00    -0.024 C 
BRANCH  17  18
ATOM     18  CE  LYS A   2      -6.621  32.725 -10.145  0.00  0.00    -0.086 C 
BRANCH  18  19
ATOM     19  NZ  LYS A   2      -6.962  33.725 -11.171  0.00  0.00    +0.380 N 
ATOM     20  HZ1 LYS A   2      -6.364  34.567 -11.045  0.00  0.00    -0.089 HD
ATOM     21  HZ2 LYS A   2      -7.963  33.992 -11.075  0.00  0.00    -0.089 HD
ATOM     22  HZ3 LYS A   2      -6.799  33.321 -12.115  0.00  0.00    -0.089 HD
ENDBRANCH  18  19
ENDBRANCH  17  18
ENDBRANCH  16  17
ENDBRANCH  15  16
ENDBRANCH  12  15
ENDBRANCH   3  12
TORSDOF 11
REMARK  Name = ../refined-set-2016/4pzv/4pzv_pocket.pdb
REMARK  248 active torsions:
REMARK  status: ('A' for Active; 'I' for Inactive)
REMARK    1  A    between atoms: _1  and  _3
REMARK    2  A    between atoms: _3  and  _4
REMARK    3  A    between atoms: _3  and  _6
REMARK    4  A    between atoms: _6  and  _7
REMARK    5  A    between atoms: _10  and  _12
REMARK    6  A    between atoms: _12  and  _13
REMARK    7  A    between atoms: _12  and  _15
REMARK    8  A    between atoms: _15  and  _16
REMARK    9  A    between atoms: _19  and  _21
REMARK   10  A    between atoms: _21  and  _22
REMARK   11  A    between atoms: _24  and  _26
REMARK   12  A    between atoms: _26  and  _27
REMARK   13  A    between atoms: _26  and  _29
REMARK   14  A    between atoms: _29  and  _30
REMARK   15  A    between atoms: _33  and  _35
REMARK   16  A    between atoms: _35  and  _36
REMARK   17  A    between atoms: _38  and  _40
REMARK   18  A    between atoms: _40  and  _41
REMARK   19  A    between atoms: _40  and  _43
REMARK   20  A    between atoms: _43  and  _44
REMARK   21  A    between atoms: _47  and  _49
REMARK   22  A    between atoms: _49  and  _50
REMARK   23  A    between atoms: _49  and  _52
REMARK   24  A    between atoms: _52  and  _53
REMARK   25  A    between atoms: _58  and  _60
REMARK   26  A    between atoms: _60  and  _61
REMARK   27  A    between atoms: _60  and  _63
REMARK   28  A    between atoms: _63  and  _64
REMARK   29  A    between atoms: _69  and  _70
REMARK   30  A    between atoms: _72  and  _74
REMARK   31  A    between atoms: _74  and  _75
REMARK   32  A    between atoms: _74  and  _77
REMARK   33  A    between atoms: _77  and  _78
REMARK   34  A    between atoms: _80  and  _82
REMARK   35  A    between atoms: _82  and  _83
REMARK   36  A    between atoms: _82  and  _85
REMARK   37  A    between atoms: _85  and  _86
REMARK   38  A    between atoms: _88  and  _90
REMARK   39  A    between atoms: _90  and  _91
REMARK   40  A    between atoms: _90  and  _93
REMARK   41  A    between atoms: _93  and  _94
REMARK   42  A    between atoms: _94  and  _95
REMARK   43  A    between atoms: _95  and  _96
REMARK   44  A    between atoms: _96  and  _97
REMARK   45  A    between atoms: _101  and  _103
REMARK   46  A    between atoms: _103  and  _104
REMARK   47  A    between atoms: _107  and  _109
REMARK   48  A    between atoms: _109  and  _110
REMARK   49  A    between atoms: _109  and  _112
REMARK   50  A    between atoms: _115  and  _117
REMARK   51  A    between atoms: _117  and  _118
REMARK   52  A    between atoms: _117  and  _120
REMARK   53  A    between atoms: _120  and  _121
REMARK   54  A    between atoms: _124  and  _126
REMARK   55  A    between atoms: _126  and  _127
REMARK   56  A    between atoms: _126  and  _129
REMARK   57  A    between atoms: _129  and  _130
REMARK   58  A    between atoms: _130  and  _131
REMARK   59  A    between atoms: _131  and  _132
REMARK   60  A    between atoms: _132  and  _133
REMARK   61  A    between atoms: _137  and  _139
REMARK   62  A    between atoms: _139  and  _140
REMARK   63  A    between atoms: _139  and  _142
REMARK   64  A    between atoms: _142  and  _143
REMARK   65  A    between atoms: _153  and  _155
REMARK   66  A    between atoms: _155  and  _156
REMARK   67  A    between atoms: _155  and  _158
REMARK   68  A    between atoms: _158  and  _159
REMARK   69  A    between atoms: _162  and  _164
REMARK   70  A    between atoms: _164  and  _165
REMARK   71  A    between atoms: _164  and  _167
REMARK   72  A    between atoms: _167  and  _168
REMARK   73  A    between atoms: _168  and  _169
REMARK   74  A    between atoms: _169  and  _170
REMARK   75  A    between atoms: _179  and  _181
REMARK   76  A    between atoms: _181  and  _182
REMARK   77  A    between atoms: _181  and  _184
REMARK   78  A    between atoms: _184  and  _185
REMARK   79  A    between atoms: _191  and  _193
REMARK   80  A    between atoms: _193  and  _194
REMARK   81  A    between atoms: _193  and  _196
REMARK   82  A    between atoms: _196  and  _197
REMARK   83  A    between atoms: _200  and  _202
REMARK   84  A    between atoms: _202  and  _203
REMARK   85  A    between atoms: _202  and  _205
REMARK   86  A    between atoms: _205  and  _206
REMARK   87  A    between atoms: _211  and  _213
REMARK   88  A    between atoms: _213  and  _214
REMARK   89  A    between atoms: _213  and  _216
REMARK   90  A    between atoms: _216  and  _217
REMARK   91  A    between atoms: _221  and  _222
REMARK   92  A    between atoms: _227  and  _229
REMARK   93  A    between atoms: _229  and  _230
REMARK   94  A    between atoms: _229  and  _232
REMARK   95  A    between atoms: _232  and  _233
REMARK   96  A    between atoms: _236  and  _238
REMARK   97  A    between atoms: _238  and  _239
REMARK   98  A    between atoms: _238  and  _241
REMARK   99  A    between atoms: _241  and  _242
REMARK  100  A    between atoms: _245  and  _247
REMARK  101  A    between atoms: _247  and  _248
REMARK  102  A    between atoms: _247  and  _250
REMARK  103  A    between atoms: _250  and  _251
REMARK  104  A    between atoms: _254  and  _256
REMARK  105  A    between atoms: _256  and  _257
REMARK  106  A    between atoms: _256  and  _259
REMARK  107  A    between atoms: _259  and  _260
REMARK  108  A    between atoms: _260  and  _261
REMARK  109  A    between atoms: _261  and  _262
REMARK  110  A    between atoms: _262  and  _263
REMARK  111  A    between atoms: _267  and  _269
REMARK  112  A    between atoms: _269  and  _270
REMARK  113  A    between atoms: _269  and  _272
REMARK  114  A    between atoms: _272  and  _273
REMARK  115  A    between atoms: _273  and  _274
REMARK  116  A    between atoms: _277  and  _279
REMARK  117  A    between atoms: _279  and  _280
REMARK  118  A    between atoms: _279  and  _282
REMARK  119  A    between atoms: _282  and  _283
REMARK  120  A    between atoms: _283  and  _284
REMARK  121  A    between atoms: _284  and  _285
REMARK  122  A    between atoms: _294  and  _296
REMARK  123  A    between atoms: _296  and  _297
REMARK  124  A    between atoms: _296  and  _299
REMARK  125  A    between atoms: _299  and  _300
REMARK  126  A    between atoms: _303  and  _305
REMARK  127  A    between atoms: _305  and  _306
REMARK  128  A    between atoms: _310  and  _311
REMARK  129  A    between atoms: _316  and  _318
REMARK  130  A    between atoms: _318  and  _319
REMARK  131  A    between atoms: _322  and  _324
REMARK  132  A    between atoms: _324  and  _325
REMARK  133  A    between atoms: _324  and  _327
REMARK  134  A    between atoms: _327  and  _328
REMARK  135  A    between atoms: _338  and  _340
REMARK  136  A    between atoms: _340  and  _341
REMARK  137  A    between atoms: _340  and  _343
REMARK  138  A    between atoms: _343  and  _344
REMARK  139  A    between atoms: _347  and  _348
REMARK  140  A    between atoms: _353  and  _355
REMARK  141  A    between atoms: _355  and  _356
REMARK  142  A    between atoms: _355  and  _358
REMARK  143  A    between atoms: _358  and  _359
REMARK  144  A    between atoms: _359  and  _360
REMARK  145  A    between atoms: _360  and  _361
REMARK  146  A    between atoms: _370  and  _372
REMARK  147  A    between atoms: _372  and  _373
REMARK  148  A    between atoms: _372  and  _375
REMARK  149  A    between atoms: _375  and  _376
REMARK  150  A    between atoms: _379  and  _381
REMARK  151  A    between atoms: _381  and  _382
REMARK  152  A    between atoms: _381  and  _384
REMARK  153  A    between atoms: _384  and  _385
REMARK  154  A    between atoms: _388  and  _390
REMARK  155  A    between atoms: _390  and  _391
REMARK  156  A    between atoms: _390  and  _393
REMARK  157  A    between atoms: _393  and  _394
REMARK  158  A    between atoms: _397  and  _399
REMARK  159  A    between atoms: _399  and  _400
REMARK  160  A    between atoms: _399  and  _402
REMARK  161  A    between atoms: _402  and  _403
REMARK  162  A    between atoms: _406  and  _408
REMARK  163  A    between atoms: _408  and  _409
REMARK  164  A    between atoms: _408  and  _411
REMARK  165  A    between atoms: _411  and  _412
REMARK  166  A    between atoms: _415  and  _417
REMARK  167  A    between atoms: _417  and  _418
REMARK  168  A    between atoms: _417  and  _420
REMARK  169  A    between atoms: _420  and  _421
REMARK  170  A    between atoms: _424  and  _426
REMARK  171  A    between atoms: _426  and  _427
REMARK  172  A    between atoms: _430  and  _432
REMARK  173  A    between atoms: _432  and  _433
REMARK  174  A    between atoms: _432  and  _435
REMARK  175  A    between atoms: _435  and  _436
REMARK  176  A    between atoms: _439  and  _441
REMARK  177  A    between atoms: _441  and  _442
REMARK  178  A    between atoms: _441  and  _444
REMARK  179  A    between atoms: _444  and  _445
REMARK  180  A    between atoms: _448  and  _450
REMARK  181  A    between atoms: _450  and  _451
REMARK  182  A    between atoms: _450  and  _453
REMARK  183  A    between atoms: _453  and  _454
REMARK  184  A    between atoms: _457  and  _459
REMARK  185  A    between atoms: _459  and  _460
REMARK  186  A    between atoms: _459  and  _462
REMARK  187  A    between atoms: _462  and  _463
REMARK  188  A    between atoms: _463  and  _464
REMARK  189  A    between atoms: _464  and  _465
REMARK  190  A    between atoms: _465  and  _466
REMARK  191  A    between atoms: _470  and  _472
REMARK  192  A    between atoms: _472  and  _473
REMARK  193  A    between atoms: _472  and  _475
REMARK  194  A    between atoms: _475  and  _476
REMARK  195  A    between atoms: _479  and  _481
REMARK  196  A    between atoms: _481  and  _482
REMARK  197  A    between atoms: _481  and  _484
REMARK  198  A    between atoms: _484  and  _485
REMARK  199  A    between atoms: _488  and  _490
REMARK  200  A    between atoms: _490  and  _491
REMARK  201  A    between atoms: _490  and  _493
REMARK  202  A    between atoms: _493  and  _494
REMARK  203  A    between atoms: _498  and  _499
REMARK  204  A    between atoms: _504  and  _506
REMARK  205  A    between atoms: _506  and  _507
REMARK  206  A    between atoms: _506  and  _509
REMARK  207  A    between atoms: _509  and  _510
REMARK  208  A    between atoms: _515  and  _517
REMARK  209  A    between atoms: _517  and  _518
REMARK  210  A    between atoms: _517  and  _520
REMARK  211  A    between atoms: _520  and  _521
REMARK  212  A    between atoms: _521  and  _522
REMARK  213  A    between atoms: _522  and  _523
REMARK  214  A    between atoms: _523  and  _524
REMARK  215  A    between atoms: _528  and  _530
REMARK  216  A    between atoms: _530  and  _531
REMARK  217  A    between atoms: _530  and  _533
REMARK  218  A    between atoms: _533  and  _534
REMARK  219  A    between atoms: _534  and  _535
REMARK  220  A    between atoms: _538  and  _540
REMARK  221  A    between atoms: _540  and  _541
REMARK  222  A    between atoms: _540  and  _543
REMARK  223  A    between atoms: _543  and  _544
REMARK  224  A    between atoms: _547  and  _549
REMARK  225  A    between atoms: _549  and  _550
REMARK  226  A    between atoms: _549  and  _552
REMARK  227  A    between atoms: _552  and  _553
REMARK  228  A    between atoms: _553  and  _554
REMARK  229  A    between atoms: _554  and  _555
REMARK  230  A    between atoms: _564  and  _566
REMARK  231  A    between atoms: _566  and  _567
REMARK  232  A    between atoms: _566  and  _569
REMARK  233  A    between atoms: _569  and  _570
REMARK  234  A    between atoms: _572  and  _574
REMARK  235  A    between atoms: _574  and  _575
REMARK  236  A    between atoms: _574  and  _577
REMARK  237  A    between atoms: _577  and  _578
REMARK  238  A    between atoms: _584  and  _586
REMARK  239  A    between atoms: _586  and  _587
REMARK  240  A    between atoms: _590  and  _592
REMARK  241  A    between atoms: _592  and  _593
REMARK  242  A    between atoms: _592  and  _595
REMARK  243  A    between atoms: _595  and  _596
REMARK  244  A    between atoms: _596  and  _597
REMARK  245  A    between atoms: _600  and  _602
REMARK  246  A    between atoms: _602  and  _603
REMARK  247  A    between atoms: _602  and  _605
REMARK  248  A    between atoms: _605  and  _606
REMARK                            x       y       z     vdW  Elec       q    Type
REMARK                         _______ _______ _______ _____ _____    ______ ____
ROOT
ATOM      1  CA  GLU A   1      -2.660  32.062  -1.429  0.00  0.00    +0.134 C 
ENDROOT
BRANCH   1   2
ATOM      2  N   GLU A   1      -4.017  31.553  -1.256  0.00  0.00    -0.239 NA
ATOM      3  H   GLU A   1      -4.579  31.295  -2.092  0.00  0.00    +0.142 HD
ENDBRANCH   1   2
BRANCH   1   4
ATOM      4  C   GLU A   1      -2.602  33.475  -0.858  0.00  0.00    +0.224 C 
ATOM      5  O   GLU A   1      -1.639  33.867  -0.198  0.00  0.00    -0.287 OA
ENDBRANCH   1   4
BRANCH   1   6
ATOM      6  CB  GLU A   1      -2.272  32.075  -2.917  0.00  0.00    +0.037 C 
BRANCH   6   7
ATOM      7  CG  GLU A   1      -2.050  30.683  -3.547  0.00  0.00    +0.116 C 
BRANCH   7   8
ATOM      8  CD  GLU A   1      -1.690  30.790  -5.007  0.00  0.00    +0.365 C 
ATOM      9  OE2 GLU A   1      -0.995  29.908  -5.552  0.00  0.00    -0.246 OA
ATOM     10  OE1 GLU A   1      -2.107  31.788  -5.614  0.00  0.00    -0.246 OA
ENDBRANCH   7   8
ENDBRANCH   6   7
ENDBRANCH   1   6
TORSDOF 5
REMARK  Name = ../refined-set-2016/4pzv/4pzv_pocket.pdb
REMARK  248 active torsions:
REMARK  status: ('A' for Active; 'I' for Inactive)
REMARK    1  A    between atoms: _1  and  _3
REMARK    2  A    between atoms: _3  and  _4
REMARK    3  A    between atoms: _3  and  _6
REMARK    4  A    between atoms: _6  and  _7
REMARK    5  A    between atoms: _10  and  _12
REMARK    6  A    between atoms: _12  and  _13
REMARK    7  A    between atoms: _12  and  _15
REMARK    8  A    between atoms: _15  and  _16
REMARK    9  A    between atoms: _19  and  _21
REMARK   10  A    between atoms: _21  and  _22
REMARK   11  A    between atoms: _24  and  _26
REMARK   12  A    between atoms: _26  and  _27
REMARK   13  A    between atoms: _26  and  _29
REMARK   14  A    between atoms: _29  and  _30
REMARK   15  A    between atoms: _33  and  _35
REMARK   16  A    between atoms: _35  and  _36
REMARK   17  A    between atoms: _38  and  _40
REMARK   18  A    between atoms: _40  and  _41
REMARK   19  A    between atoms: _40  and  _43
REMARK   20  A    between atoms: _43  and  _44
REMARK   21  A    between atoms: _47  and  _49
REMARK   22  A    between atoms: _49  and  _50
REMARK   23  A    between atoms: _49  and  _52
REMARK   24  A    between atoms: _52  and  _53
REMARK   25  A    between atoms: _58  and  _60
REMARK   26  A    between atoms: _60  and  _61
REMARK   27  A    between atoms: _60  and  _63
REMARK   28  A    between atoms: _63  and  _64
REMARK   29  A    between atoms: _69  and  _70
REMARK   30  A    between atoms: _72  and  _74
REMARK   31  A    between atoms: _74  and  _75
REMARK   32  A    between atoms: _74  and  _77
REMARK   33  A    between atoms: _77  and  _78
REMARK   34  A    between atoms: _80  and  _82
REMARK   35  A    between atoms: _82  and  _83
REMARK   36  A    between atoms: _82  and  _85
REMARK   37  A    between atoms: _85  and  _86
REMARK   38  A    between atoms: _88  and  _90
REMARK   39  A    between atoms: _90  and  _91
REMARK   40  A    between atoms: _90  and  _93
REMARK   41  A    between atoms: _93  and  _94
REMARK   42  A    between atoms: _94  and  _95
REMARK   43  A    between atoms: _95  and  _96
REMARK   44  A    between atoms: _96  and  _97
REMARK   45  A    between atoms: _101  and  _103
REMARK   46  A    between atoms: _103  and  _104
REMARK   47  A    between atoms: _107  and  _109
REMARK   48  A    between atoms: _109  and  _110
REMARK   49  A    between atoms: _109  and  _112
REMARK   50  A    between atoms: _115  and  _117
REMARK   51  A    between atoms: _117  and  _118
REMARK   52  A    between atoms: _117  and  _120
REMARK   53  A    between atoms: _120  and  _121
REMARK   54  A    between atoms: _124  and  _126
REMARK   55  A    between atoms: _126  and  _127
REMARK   56  A    between atoms: _126  and  _129
REMARK   57  A    between atoms: _129  and  _130
REMARK   58  A    between atoms: _130  and  _131
REMARK   59  A    between atoms: _131  and  _132
REMARK   60  A    between atoms: _132  and  _133
REMARK   61  A    between atoms: _137  and  _139
REMARK   62  A    between atoms: _139  and  _140
REMARK   63  A    between atoms: _139  and  _142
REMARK   64  A    between atoms: _142  and  _143
REMARK   65  A    between atoms: _153  and  _155
REMARK   66  A    between atoms: _155  and  _156
REMARK   67  A    between atoms: _155  and  _158
REMARK   68  A    between atoms: _158  and  _159
REMARK   69  A    between atoms: _162  and  _164
REMARK   70  A    between atoms: _164  and  _165
REMARK   71  A    between atoms: _164  and  _167
REMARK   72  A    between atoms: _167  and  _168
REMARK   73  A    between atoms: _168  and  _169
REMARK   74  A    between atoms: _169  and  _170
REMARK   75  A    between atoms: _179  and  _181
REMARK   76  A    between atoms: _181  and  _182
REMARK   77  A    between atoms: _181  and  _184
REMARK   78  A    between atoms: _184  and  _185
REMARK   79  A    between atoms: _191  and  _193
REMARK   80  A    between atoms: _193  and  _194
REMARK   81  A    between atoms: _193  and  _196
REMARK   82  A    between atoms: _196  and  _197
REMARK   83  A    between atoms: _200  and  _202
REMARK   84  A    between atoms: _202  and  _203
REMARK   85  A    between atoms: _202  and  _205
REMARK   86  A    between atoms: _205  and  _206
REMARK   87  A    between atoms: _211  and  _213
REMARK   88  A    between atoms: _213  and  _214
REMARK   89  A    between atoms: _213  and  _216
REMARK   90  A    between atoms: _216  and  _217
REMARK   91  A    between atoms: _221  and  _222
REMARK   92  A    between atoms: _227  and  _229
REMARK   93  A    between atoms: _229  and  _230
REMARK   94  A    between atoms: _229  and  _232
REMARK   95  A    between atoms: _232  and  _233
REMARK   96  A    between atoms: _236  and  _238
REMARK   97  A    between atoms: _238  and  _239
REMARK   98  A    between atoms: _238  and  _241
REMARK   99  A    between atoms: _241  and  _242
REMARK  100  A    between atoms: _245  and  _247
REMARK  101  A    between atoms: _247  and  _248
REMARK  102  A    between atoms: _247  and  _250
REMARK  103  A    between atoms: _250  and  _251
REMARK  104  A    between atoms: _254  and  _256
REMARK  105  A    between atoms: _256  and  _257
REMARK  106  A    between atoms: _256  and  _259
REMARK  107  A    between atoms: _259  and  _260
REMARK  108  A    between atoms: _260  and  _261
REMARK  109  A    between atoms: _261  and  _262
REMARK  110  A    between atoms: _262  and  _263
REMARK  111  A    between atoms: _267  and  _269
REMARK  112  A    between atoms: _269  and  _270
REMARK  113  A    between atoms: _269  and  _272
REMARK  114  A    between atoms: _272  and  _273
REMARK  115  A    between atoms: _273  and  _274
REMARK  116  A    between atoms: _277  and  _279
REMARK  117  A    between atoms: _279  and  _280
REMARK  118  A    between atoms: _279  and  _282
REMARK  119  A    between atoms: _282  and  _283
REMARK  120  A    between atoms: _283  and  _284
REMARK  121  A    between atoms: _284  and  _285
REMARK  122  A    between atoms: _294  and  _296
REMARK  123  A    between atoms: _296  and  _297
REMARK  124  A    between atoms: _296  and  _299
REMARK  125  A    between atoms: _299  and  _300
REMARK  126  A    between atoms: _303  and  _305
REMARK  127  A    between atoms: _305  and  _306
REMARK  128  A    between atoms: _310  and  _311
REMARK  129  A    between atoms: _316  and  _318
REMARK  130  A    between atoms: _318  and  _319
REMARK  131  A    between atoms: _322  and  _324
REMARK  132  A    between atoms: _324  and  _325
REMARK  133  A    between atoms: _324  and  _327
REMARK  134  A    between atoms: _327  and  _328
REMARK  135  A    between atoms: _338  and  _340
REMARK  136  A    between atoms: _340  and  _341
REMARK  137  A    between atoms: _340  and  _343
REMARK  138  A    between atoms: _343  and  _344
REMARK  139  A    between atoms: _347  and  _348
REMARK  140  A    between atoms: _353  and  _355
REMARK  141  A    between atoms: _355  and  _356
REMARK  142  A    between atoms: _355  and  _358
REMARK  143  A    between atoms: _358  and  _359
REMARK  144  A    between atoms: _359  and  _360
REMARK  145  A    between atoms: _360  and  _361
REMARK  146  A    between atoms: _370  and  _372
REMARK  147  A    between atoms: _372  and  _373
REMARK  148  A    between atoms: _372  and  _375
REMARK  149  A    between atoms: _375  and  _376
REMARK  150  A    between atoms: _379  and  _381
REMARK  151  A    between atoms: _381  and  _382
REMARK  152  A    between atoms: _381  and  _384
REMARK  153  A    between atoms: _384  and  _385
REMARK  154  A    between atoms: _388  and  _390
REMARK  155  A    between atoms: _390  and  _391
REMARK  156  A    between atoms: _390  and  _393
REMARK  157  A    between atoms: _393  and  _394
REMARK  158  A    between atoms: _397  and  _399
REMARK  159  A    between atoms: _399  and  _400
REMARK  160  A    between atoms: _399  and  _402
REMARK  161  A    between atoms: _402  and  _403
REMARK  162  A    between atoms: _406  and  _408
REMARK  163  A    between atoms: _408  and  _409
REMARK  164  A    between atoms: _408  and  _411
REMARK  165  A    between atoms: _411  and  _412
REMARK  166  A    between atoms: _415  and  _417
REMARK  167  A    between atoms: _417  and  _418
REMARK  168  A    between atoms: _417  and  _420
REMARK  169  A    between atoms: _420  and  _421
REMARK  170  A    between atoms: _424  and  _426
REMARK  171  A    between atoms: _426  and  _427
REMARK  172  A    between atoms: _430  and  _432
REMARK  173  A    between atoms: _432  and  _433
REMARK  174  A    between atoms: _432  and  _435
REMARK  175  A    between atoms: _435  and  _436
REMARK  176  A    between atoms: _439  and  _441
REMARK  177  A    between atoms: _441  and  _442
REMARK  178  A    between atoms: _441  and  _444
REMARK  179  A    between atoms: _444  and  _445
REMARK  180  A    between atoms: _448  and  _450
REMARK  181  A    between atoms: _450  and  _451
REMARK  182  A    between atoms: _450  and  _453
REMARK  183  A    between atoms: _453  and  _454
REMARK  184  A    between atoms: _457  and  _459
REMARK  185  A    between atoms: _459  and  _460
REMARK  186  A    between atoms: _459  and  _462
REMARK  187  A    between atoms: _462  and  _463
REMARK  188  A    between atoms: _463  and  _464
REMARK  189  A    between atoms: _464  and  _465
REMARK  190  A    between atoms: _465  and  _466
REMARK  191  A    between atoms: _470  and  _472
REMARK  192  A    between atoms: _472  and  _473
REMARK  193  A    between atoms: _472  and  _475
REMARK  194  A    between atoms: _475  and  _476
REMARK  195  A    between atoms: _479  and  _481
REMARK  196  A    between atoms: _481  and  _482
REMARK  197  A    between atoms: _481  and  _484
REMARK  198  A    between atoms: _484  and  _485
REMARK  199  A    between atoms: _488  and  _490
REMARK  200  A    between atoms: _490  and  _491
REMARK  201  A    between atoms: _490  and  _493
REMARK  202  A    between atoms: _493  and  _494
REMARK  203  A    between atoms: _498  and  _499
REMARK  204  A    between atoms: _504  and  _506
REMARK  205  A    between atoms: _506  and  _507
REMARK  206  A    between atoms: _506  and  _509
REMARK  207  A    between atoms: _509  and  _510
REMARK  208  A    between atoms: _515  and  _517
REMARK  209  A    between atoms: _517  and  _518
REMARK  210  A    between atoms: _517  and  _520
REMARK  211  A    between atoms: _520  and  _521
REMARK  212  A    between atoms: _521  and  _522
REMARK  213  A    between atoms: _522  and  _523
REMARK  214  A    between atoms: _523  and  _524
REMARK  215  A    between atoms: _528  and  _530
REMARK  216  A    between atoms: _530  and  _531
REMARK  217  A    between atoms: _530  and  _533
REMARK  218  A    between atoms: _533  and  _534
REMARK  219  A    between atoms: _534  and  _535
REMARK  220  A    between atoms: _538  and  _540
REMARK  221  A    between atoms: _540  and  _541
REMARK  222  A    between atoms: _540  and  _543
REMARK  223  A    between atoms: _543  and  _544
REMARK  224  A    between atoms: _547  and  _549
REMARK  225  A    between atoms: _549  and  _550
REMARK  226  A    between atoms: _549  and  _552
REMARK  227  A    between atoms: _552  and  _553
REMARK  228  A    between atoms: _553  and  _554
REMARK  229  A    between atoms: _554  and  _555
REMARK  230  A    between atoms: _564  and  _566
REMARK  231  A    between atoms: _566  and  _567
REMARK  232  A    between atoms: _566  and  _569
REMARK  233  A    between atoms: _569  and  _570
REMARK  234  A    between atoms: _572  and  _574
REMARK  235  A    between atoms: _574  and  _575
REMARK  236  A    between atoms: _574  and  _577
REMARK  237  A    between atoms: _577  and  _578
REMARK  238  A    between atoms: _584  and  _586
REMARK  239  A    between atoms: _586  and  _587
REMARK  240  A    between atoms: _590  and  _592
REMARK  241  A    between atoms: _592  and  _593
REMARK  242  A    between atoms: _592  and  _595
REMARK  243  A    between atoms: _595  and  _596
REMARK  244  A    between atoms: _596  and  _597
REMARK  245  A    between atoms: _600  and  _602
REMARK  246  A    between atoms: _602  and  _603
REMARK  247  A    between atoms: _602  and  _605
REMARK  248  A    between atoms: _605  and  _606
REMARK                            x       y       z     vdW  Elec       q    Type
REMARK                         _______ _______ _______ _____ _____    ______ ____
ROOT
ATOM      1  NE  ARG A   1       2.407  33.430  -5.601  0.00  0.00    -0.265 N 
ATOM      2  HE  ARG A   1       3.026  34.260  -5.700  0.00  0.00    +0.259 HD
ATOM      3  CZ  ARG A   1       2.493  32.486  -6.528  0.00  0.00    +0.342 C 
ATOM      4  NH2 ARG A   1       1.735  31.401  -6.467  0.00  0.00    -0.292 N 
ATOM      5 HH21 ARG A   1       1.061  31.281  -5.684  0.00  0.00    +0.255 HD
ATOM      6 HH22 ARG A   1       1.814  30.669  -7.202  0.00  0.00    +0.255 HD
ATOM      7  NH1 ARG A   1       3.364  32.623  -7.514  0.00  0.00    -0.292 N 
ATOM      8 HH11 ARG A   1       3.973  33.465  -7.557  0.00  0.00    +0.255 HD
ATOM      9 HH12 ARG A   1       3.440  31.889  -8.247  0.00  0.00    +0.255 HD
ENDROOT
BRANCH   1  10
ATOM     10  CD  ARG A   1       1.509  33.391  -4.454  0.00  0.00    +0.174 C 
BRANCH  10  11
ATOM     11  CG  ARG A   1       1.854  34.519  -3.531  0.00  0.00    +0.045 C 
BRANCH  11  12
ATOM     12  CB  ARG A   1       1.063  34.521  -2.241  0.00  0.00    +0.029 C 
BRANCH  12  13
ATOM     13  CA  ARG A   1       1.410  35.716  -1.353  0.00  0.00    +0.133 C 
BRANCH  13  14
ATOM     14  N   ARG A   1       0.687  35.643  -0.091  0.00  0.00    -0.239 NA
ATOM     15  H   ARG A   1      -0.178  35.069  -0.027  0.00  0.00    +0.142 HD
ENDBRANCH  13  14
BRANCH  13  16
ATOM     16  C   ARG A   1       1.041  37.000  -2.071  0.00  0.00    +0.224 C 
ATOM     17  O   ARG A   1      -0.092  37.444  -1.984  0.00  0.00    -0.287 OA
ENDBRANCH  13  16
ENDBRANCH  12  13
ENDBRANCH  11  12
ENDBRANCH  10  11
ENDBRANCH   1  10
TORSDOF 6
REMARK  Name = ../refined-set-2016/4pzv/4pzv_pocket.pdb
REMARK  248 active torsions:
REMARK  status: ('A' for Active; 'I' for Inactive)
REMARK    1  A    between atoms: _1  and  _3
REMARK    2  A    between atoms: _3  and  _4
REMARK    3  A    between atoms: _3  and  _6
REMARK    4  A    between atoms: _6  and  _7
REMARK    5  A    between atoms: _10  and  _12
REMARK    6  A    between atoms: _12  and  _13
REMARK    7  A    between atoms: _12  and  _15
REMARK    8  A    between atoms: _15  and  _16
REMARK    9  A    between atoms: _19  and  _21
REMARK   10  A    between atoms: _21  and  _22
REMARK   11  A    between atoms: _24  and  _26
REMARK   12  A    between atoms: _26  and  _27
REMARK   13  A    between atoms: _26  and  _29
REMARK   14  A    between atoms: _29  and  _30
REMARK   15  A    between atoms: _33  and  _35
REMARK   16  A    between atoms: _35  and  _36
REMARK   17  A    between atoms: _38  and  _40
REMARK   18  A    between atoms: _40  and  _41
REMARK   19  A    between atoms: _40  and  _43
REMARK   20  A    between atoms: _43  and  _44
REMARK   21  A    between atoms: _47  and  _49
REMARK   22  A    between atoms: _49  and  _50
REMARK   23  A    between atoms: _49  and  _52
REMARK   24  A    between atoms: _52  and  _53
REMARK   25  A    between atoms: _58  and  _60
REMARK   26  A    between atoms: _60  and  _61
REMARK   27  A    between atoms: _60  and  _63
REMARK   28  A    between atoms: _63  and  _64
REMARK   29  A    between atoms: _69  and  _70
REMARK   30  A    between atoms: _72  and  _74
REMARK   31  A    between atoms: _74  and  _75
REMARK   32  A    between atoms: _74  and  _77
REMARK   33  A    between atoms: _77  and  _78
REMARK   34  A    between atoms: _80  and  _82
REMARK   35  A    between atoms: _82  and  _83
REMARK   36  A    between atoms: _82  and  _85
REMARK   37  A    between atoms: _85  and  _86
REMARK   38  A    between atoms: _88  and  _90
REMARK   39  A    between atoms: _90  and  _91
REMARK   40  A    between atoms: _90  and  _93
REMARK   41  A    between atoms: _93  and  _94
REMARK   42  A    between atoms: _94  and  _95
REMARK   43  A    between atoms: _95  and  _96
REMARK   44  A    between atoms: _96  and  _97
REMARK   45  A    between atoms: _101  and  _103
REMARK   46  A    between atoms: _103  and  _104
REMARK   47  A    between atoms: _107  and  _109
REMARK   48  A    between atoms: _109  and  _110
REMARK   49  A    between atoms: _109  and  _112
REMARK   50  A    between atoms: _115  and  _117
REMARK   51  A    between atoms: _117  and  _118
REMARK   52  A    between atoms: _117  and  _120
REMARK   53  A    between atoms: _120  and  _121
REMARK   54  A    between atoms: _124  and  _126
REMARK   55  A    between atoms: _126  and  _127
REMARK   56  A    between atoms: _126  and  _129
REMARK   57  A    between atoms: _129  and  _130
REMARK   58  A    between atoms: _130  and  _131
REMARK   59  A    between atoms: _131  and  _132
REMARK   60  A    between atoms: _132  and  _133
REMARK   61  A    between atoms: _137  and  _139
REMARK   62  A    between atoms: _139  and  _140
REMARK   63  A    between atoms: _139  and  _142
REMARK   64  A    between atoms: _142  and  _143
REMARK   65  A    between atoms: _153  and  _155
REMARK   66  A    between atoms: _155  and  _156
REMARK   67  A    between atoms: _155  and  _158
REMARK   68  A    between atoms: _158  and  _159
REMARK   69  A    between atoms: _162  and  _164
REMARK   70  A    between atoms: _164  and  _165
REMARK   71  A    between atoms: _164  and  _167
REMARK   72  A    between atoms: _167  and  _168
REMARK   73  A    between atoms: _168  and  _169
REMARK   74  A    between atoms: _169  and  _170
REMARK   75  A    between atoms: _179  and  _181
REMARK   76  A    between atoms: _181  and  _182
REMARK   77  A    between atoms: _181  and  _184
REMARK   78  A    between atoms: _184  and  _185
REMARK   79  A    between atoms: _191  and  _193
REMARK   80  A    between atoms: _193  and  _194
REMARK   81  A    between atoms: _193  and  _196
REMARK   82  A    between atoms: _196  and  _197
REMARK   83  A    between atoms: _200  and  _202
REMARK   84  A    between atoms: _202  and  _203
REMARK   85  A    between atoms: _202  and  _205
REMARK   86  A    between atoms: _205  and  _206
REMARK   87  A    between atoms: _211  and  _213
REMARK   88  A    between atoms: _213  and  _214
REMARK   89  A    between atoms: _213  and  _216
REMARK   90  A    between atoms: _216  and  _217
REMARK   91  A    between atoms: _221  and  _222
REMARK   92  A    between atoms: _227  and  _229
REMARK   93  A    between atoms: _229  and  _230
REMARK   94  A    between atoms: _229  and  _232
REMARK   95  A    between atoms: _232  and  _233
REMARK   96  A    between atoms: _236  and  _238
REMARK   97  A    between atoms: _238  and  _239
REMARK   98  A    between atoms: _238  and  _241
REMARK   99  A    between atoms: _241  and  _242
REMARK  100  A    between atoms: _245  and  _247
REMARK  101  A    between atoms: _247  and  _248
REMARK  102  A    between atoms: _247  and  _250
REMARK  103  A    between atoms: _250  and  _251
REMARK  104  A    between atoms: _254  and  _256
REMARK  105  A    between atoms: _256  and  _257
REMARK  106  A    between atoms: _256  and  _259
REMARK  107  A    between atoms: _259  and  _260
REMARK  108  A    between atoms: _260  and  _261
REMARK  109  A    between atoms: _261  and  _262
REMARK  110  A    between atoms: _262  and  _263
REMARK  111  A    between atoms: _267  and  _269
REMARK  112  A    between atoms: _269  and  _270
REMARK  113  A    between atoms: _269  and  _272
REMARK  114  A    between atoms: _272  and  _273
REMARK  115  A    between atoms: _273  and  _274
REMARK  116  A    between atoms: _277  and  _279
REMARK  117  A    between atoms: _279  and  _280
REMARK  118  A    between atoms: _279  and  _282
REMARK  119  A    between atoms: _282  and  _283
REMARK  120  A    between atoms: _283  and  _284
REMARK  121  A    between atoms: _284  and  _285
REMARK  122  A    between atoms: _294  and  _296
REMARK  123  A    between atoms: _296  and  _297
REMARK  124  A    between atoms: _296  and  _299
REMARK  125  A    between atoms: _299  and  _300
REMARK  126  A    between atoms: _303  and  _305
REMARK  127  A    between atoms: _305  and  _306
REMARK  128  A    between atoms: _310  and  _311
REMARK  129  A    between atoms: _316  and  _318
REMARK  130  A    between atoms: _318  and  _319
REMARK  131  A    between atoms: _322  and  _324
REMARK  132  A    between atoms: _324  and  _325
REMARK  133  A    between atoms: _324  and  _327
REMARK  134  A    between atoms: _327  and  _328
REMARK  135  A    between atoms: _338  and  _340
REMARK  136  A    between atoms: _340  and  _341
REMARK  137  A    between atoms: _340  and  _343
REMARK  138  A    between atoms: _343  and  _344
REMARK  139  A    between atoms: _347  and  _348
REMARK  140  A    between atoms: _353  and  _355
REMARK  141  A    between atoms: _355  and  _356
REMARK  142  A    between atoms: _355  and  _358
REMARK  143  A    between atoms: _358  and  _359
REMARK  144  A    between atoms: _359  and  _360
REMARK  145  A    between atoms: _360  and  _361
REMARK  146  A    between atoms: _370  and  _372
REMARK  147  A    between atoms: _372  and  _373
REMARK  148  A    between atoms: _372  and  _375
REMARK  149  A    between atoms: _375  and  _376
REMARK  150  A    between atoms: _379  and  _381
REMARK  151  A    between atoms: _381  and  _382
REMARK  152  A    between atoms: _381  and  _384
REMARK  153  A    between atoms: _384  and  _385
REMARK  154  A    between atoms: _388  and  _390
REMARK  155  A    between atoms: _390  and  _391
REMARK  156  A    between atoms: _390  and  _393
REMARK  157  A    between atoms: _393  and  _394
REMARK  158  A    between atoms: _397  and  _399
REMARK  159  A    between atoms: _399  and  _400
REMARK  160  A    between atoms: _399  and  _402
REMARK  161  A    between atoms: _402  and  _403
REMARK  162  A    between atoms: _406  and  _408
REMARK  163  A    between atoms: _408  and  _409
REMARK  164  A    between atoms: _408  and  _411
REMARK  165  A    between atoms: _411  and  _412
REMARK  166  A    between atoms: _415  and  _417
REMARK  167  A    between atoms: _417  and  _418
REMARK  168  A    between atoms: _417  and  _420
REMARK  169  A    between atoms: _420  and  _421
REMARK  170  A    between atoms: _424  and  _426
REMARK  171  A    between atoms: _426  and  _427
REMARK  172  A    between atoms: _430  and  _432
REMARK  173  A    between atoms: _432  and  _433
REMARK  174  A    between atoms: _432  and  _435
REMARK  175  A    between atoms: _435  and  _436
REMARK  176  A    between atoms: _439  and  _441
REMARK  177  A    between atoms: _441  and  _442
REMARK  178  A    between atoms: _441  and  _444
REMARK  179  A    between atoms: _444  and  _445
REMARK  180  A    between atoms: _448  and  _450
REMARK  181  A    between atoms: _450  and  _451
REMARK  182  A    between atoms: _450  and  _453
REMARK  183  A    between atoms: _453  and  _454
REMARK  184  A    between atoms: _457  and  _459
REMARK  185  A    between atoms: _459  and  _460
REMARK  186  A    between atoms: _459  and  _462
REMARK  187  A    between atoms: _462  and  _463
REMARK  188  A    between atoms: _463  and  _464
REMARK  189  A    between atoms: _464  and  _465
REMARK  190  A    between atoms: _465  and  _466
REMARK  191  A    between atoms: _470  and  _472
REMARK  192  A    between atoms: _472  and  _473
REMARK  193  A    between atoms: _472  and  _475
REMARK  194  A    between atoms: _475  and  _476
REMARK  195  A    between atoms: _479  and  _481
REMARK  196  A    between atoms: _481  and  _482
REMARK  197  A    between atoms: _481  and  _484
REMARK  198  A    between atoms: _484  and  _485
REMARK  199  A    between atoms: _488  and  _490
REMARK  200  A    between atoms: _490  and  _491
REMARK  201  A    between atoms: _490  and  _493
REMARK  202  A    between atoms: _493  and  _494
REMARK  203  A    between atoms: _498  and  _499
REMARK  204  A    between atoms: _504  and  _506
REMARK  205  A    between atoms: _506  and  _507
REMARK  206  A    between atoms: _506  and  _509
REMARK  207  A    between atoms: _509  and  _510
REMARK  208  A    between atoms: _515  and  _517
REMARK  209  A    between atoms: _517  and  _518
REMARK  210  A    between atoms: _517  and  _520
REMARK  211  A    between atoms: _520  and  _521
REMARK  212  A    between atoms: _521  and  _522
REMARK  213  A    between atoms: _522  and  _523
REMARK  214  A    between atoms: _523  and  _524
REMARK  215  A    between atoms: _528  and  _530
REMARK  216  A    between atoms: _530  and  _531
REMARK  217  A    between atoms: _530  and  _533
REMARK  218  A    between atoms: _533  and  _534
REMARK  219  A    between atoms: _534  and  _535
REMARK  220  A    between atoms: _538  and  _540
REMARK  221  A    between atoms: _540  and  _541
REMARK  222  A    between atoms: _540  and  _543
REMARK  223  A    between atoms: _543  and  _544
REMARK  224  A    between atoms: _547  and  _549
REMARK  225  A    between atoms: _549  and  _550
REMARK  226  A    between atoms: _549  and  _552
REMARK  227  A    between atoms: _552  and  _553
REMARK  228  A    between atoms: _553  and  _554
REMARK  229  A    between atoms: _554  and  _555
REMARK  230  A    between atoms: _564  and  _566
REMARK  231  A    between atoms: _566  and  _567
REMARK  232  A    between atoms: _566  and  _569
REMARK  233  A    between atoms: _569  and  _570
REMARK  234  A    between atoms: _572  and  _574
REMARK  235  A    between atoms: _574  and  _575
REMARK  236  A    between atoms: _574  and  _577
REMARK  237  A    between atoms: _577  and  _578
REMARK  238  A    between atoms: _584  and  _586
REMARK  239  A    between atoms: _586  and  _587
REMARK  240  A    between atoms: _590  and  _592
REMARK  241  A    between atoms: _592  and  _593
REMARK  242  A    between atoms: _592  and  _595
REMARK  243  A    between atoms: _595  and  _596
REMARK  244  A    between atoms: _596  and  _597
REMARK  245  A    between atoms: _600  and  _602
REMARK  246  A    between atoms: _602  and  _603
REMARK  247  A    between atoms: _602  and  _605
REMARK  248  A    between atoms: _605  and  _606
REMARK                            x       y       z     vdW  Elec       q    Type
REMARK                         _______ _______ _______ _____ _____    ______ ____
ROOT
ATOM      1  CA  LEU A   1       0.029  37.441  -6.827  0.00  0.00    +0.133 C 
ENDROOT
BRANCH   1   2
ATOM      2  N   LEU A   1       0.288  38.104  -5.544  0.00  0.00    -0.239 NA
ATOM      3  H   LEU A   1      -0.506  38.483  -4.990  0.00  0.00    +0.142 HD
ENDBRANCH   1   2
BRANCH   1   4
ATOM      4  C   LEU A   1       0.257  38.349  -8.042  0.00  0.00    +0.224 C 
ATOM      5  O   LEU A   1      -0.006  37.952  -9.181  0.00  0.00    -0.287 OA
ENDBRANCH   1   4
BRANCH   1   6
ATOM      6  CB  LEU A   1      -1.365  36.793  -6.860  0.00  0.00    +0.025 C 
BRANCH   6   7
ATOM      7  CG  LEU A   1      -2.532  37.530  -6.214  0.00  0.00    +0.002 C 
ATOM      8  CD2 LEU A   1      -3.828  36.750  -6.411  0.00  0.00    +0.000 C 
ATOM      9  CD1 LEU A   1      -2.648  38.939  -6.788  0.00  0.00    +0.000 C 
ENDBRANCH   6   7
ENDBRANCH   1   6
TORSDOF 4
REMARK  Name = ../refined-set-2016/4pzv/4pzv_pocket.pdb
REMARK  248 active torsions:
REMARK  status: ('A' for Active; 'I' for Inactive)
REMARK    1  A    between atoms: _1  and  _3
REMARK    2  A    between atoms: _3  and  _4
REMARK    3  A    between atoms: _3  and  _6
REMARK    4  A    between atoms: _6  and  _7
REMARK    5  A    between atoms: _10  and  _12
REMARK    6  A    between atoms: _12  and  _13
REMARK    7  A    between atoms: _12  and  _15
REMARK    8  A    between atoms: _15  and  _16
REMARK    9  A    between atoms: _19  and  _21
REMARK   10  A    between atoms: _21  and  _22
REMARK   11  A    between atoms: _24  and  _26
REMARK   12  A    between atoms: _26  and  _27
REMARK   13  A    between atoms: _26  and  _29
REMARK   14  A    between atoms: _29  and  _30
REMARK   15  A    between atoms: _33  and  _35
REMARK   16  A    between atoms: _35  and  _36
REMARK   17  A    between atoms: _38  and  _40
REMARK   18  A    between atoms: _40  and  _41
REMARK   19  A    between atoms: _40  and  _43
REMARK   20  A    between atoms: _43  and  _44
REMARK   21  A    between atoms: _47  and  _49
REMARK   22  A    between atoms: _49  and  _50
REMARK   23  A    between atoms: _49  and  _52
REMARK   24  A    between atoms: _52  and  _53
REMARK   25  A    between atoms: _58  and  _60
REMARK   26  A    between atoms: _60  and  _61
REMARK   27  A    between atoms: _60  and  _63
REMARK   28  A    between atoms: _63  and  _64
REMARK   29  A    between atoms: _69  and  _70
REMARK   30  A    between atoms: _72  and  _74
REMARK   31  A    between atoms: _74  and  _75
REMARK   32  A    between atoms: _74  and  _77
REMARK   33  A    between atoms: _77  and  _78
REMARK   34  A    between atoms: _80  and  _82
REMARK   35  A    between atoms: _82  and  _83
REMARK   36  A    between atoms: _82  and  _85
REMARK   37  A    between atoms: _85  and  _86
REMARK   38  A    between atoms: _88  and  _90
REMARK   39  A    between atoms: _90  and  _91
REMARK   40  A    between atoms: _90  and  _93
REMARK   41  A    between atoms: _93  and  _94
REMARK   42  A    between atoms: _94  and  _95
REMARK   43  A    between atoms: _95  and  _96
REMARK   44  A    between atoms: _96  and  _97
REMARK   45  A    between atoms: _101  and  _103
REMARK   46  A    between atoms: _103  and  _104
REMARK   47  A    between atoms: _107  and  _109
REMARK   48  A    between atoms: _109  and  _110
REMARK   49  A    between atoms: _109  and  _112
REMARK   50  A    between atoms: _115  and  _117
REMARK   51  A    between atoms: _117  and  _118
REMARK   52  A    between atoms: _117  and  _120
REMARK   53  A    between atoms: _120  and  _121
REMARK   54  A    between atoms: _124  and  _126
REMARK   55  A    between atoms: _126  and  _127
REMARK   56  A    between atoms: _126  and  _129
REMARK   57  A    between atoms: _129  and  _130
REMARK   58  A    between atoms: _130  and  _131
REMARK   59  A    between atoms: _131  and  _132
REMARK   60  A    between atoms: _132  and  _133
REMARK   61  A    between atoms: _137  and  _139
REMARK   62  A    between atoms: _139  and  _140
REMARK   63  A    between atoms: _139  and  _142
REMARK   64  A    between atoms: _142  and  _143
REMARK   65  A    between atoms: _153  and  _155
REMARK   66  A    between atoms: _155  and  _156
REMARK   67  A    between atoms: _155  and  _158
REMARK   68  A    between atoms: _158  and  _159
REMARK   69  A    between atoms: _162  and  _164
REMARK   70  A    between atoms: _164  and  _165
REMARK   71  A    between atoms: _164  and  _167
REMARK   72  A    between atoms: _167  and  _168
REMARK   73  A    between atoms: _168  and  _169
REMARK   74  A    between atoms: _169  and  _170
REMARK   75  A    between atoms: _179  and  _181
REMARK   76  A    between atoms: _181  and  _182
REMARK   77  A    between atoms: _181  and  _184
REMARK   78  A    between atoms: _184  and  _185
REMARK   79  A    between atoms: _191  and  _193
REMARK   80  A    between atoms: _193  and  _194
REMARK   81  A    between atoms: _193  and  _196
REMARK   82  A    between atoms: _196  and  _197
REMARK   83  A    between atoms: _200  and  _202
REMARK   84  A    between atoms: _202  and  _203
REMARK   85  A    between atoms: _202  and  _205
REMARK   86  A    between atoms: _205  and  _206
REMARK   87  A    between atoms: _211  and  _213
REMARK   88  A    between atoms: _213  and  _214
REMARK   89  A    between atoms: _213  and  _216
REMARK   90  A    between atoms: _216  and  _217
REMARK   91  A    between atoms: _221  and  _222
REMARK   92  A    between atoms: _227  and  _229
REMARK   93  A    between atoms: _229  and  _230
REMARK   94  A    between atoms: _229  and  _232
REMARK   95  A    between atoms: _232  and  _233
REMARK   96  A    between atoms: _236  and  _238
REMARK   97  A    between atoms: _238  and  _239
REMARK   98  A    between atoms: _238  and  _241
REMARK   99  A    between atoms: _241  and  _242
REMARK  100  A    between atoms: _245  and  _247
REMARK  101  A    between atoms: _247  and  _248
REMARK  102  A    between atoms: _247  and  _250
REMARK  103  A    between atoms: _250  and  _251
REMARK  104  A    between atoms: _254  and  _256
REMARK  105  A    between atoms: _256  and  _257
REMARK  106  A    between atoms: _256  and  _259
REMARK  107  A    between atoms: _259  and  _260
REMARK  108  A    between atoms: _260  and  _261
REMARK  109  A    between atoms: _261  and  _262
REMARK  110  A    between atoms: _262  and  _263
REMARK  111  A    between atoms: _267  and  _269
REMARK  112  A    between atoms: _269  and  _270
REMARK  113  A    between atoms: _269  and  _272
REMARK  114  A    between atoms: _272  and  _273
REMARK  115  A    between atoms: _273  and  _274
REMARK  116  A    between atoms: _277  and  _279
REMARK  117  A    between atoms: _279  and  _280
REMARK  118  A    between atoms: _279  and  _282
REMARK  119  A    between atoms: _282  and  _283
REMARK  120  A    between atoms: _283  and  _284
REMARK  121  A    between atoms: _284  and  _285
REMARK  122  A    between atoms: _294  and  _296
REMARK  123  A    between atoms: _296  and  _297
REMARK  124  A    between atoms: _296  and  _299
REMARK  125  A    between atoms: _299  and  _300
REMARK  126  A    between atoms: _303  and  _305
REMARK  127  A    between atoms: _305  and  _306
REMARK  128  A    between atoms: _310  and  _311
REMARK  129  A    between atoms: _316  and  _318
REMARK  130  A    between atoms: _318  and  _319
REMARK  131  A    between atoms: _322  and  _324
REMARK  132  A    between atoms: _324  and  _325
REMARK  133  A    between atoms: _324  and  _327
REMARK  134  A    between atoms: _327  and  _328
REMARK  135  A    between atoms: _338  and  _340
REMARK  136  A    between atoms: _340  and  _341
REMARK  137  A    between atoms: _340  and  _343
REMARK  138  A    between atoms: _343  and  _344
REMARK  139  A    between atoms: _347  and  _348
REMARK  140  A    between atoms: _353  and  _355
REMARK  141  A    between atoms: _355  and  _356
REMARK  142  A    between atoms: _355  and  _358
REMARK  143  A    between atoms: _358  and  _359
REMARK  144  A    between atoms: _359  and  _360
REMARK  145  A    between atoms: _360  and  _361
REMARK  146  A    between atoms: _370  and  _372
REMARK  147  A    between atoms: _372  and  _373
REMARK  148  A    between atoms: _372  and  _375
REMARK  149  A    between atoms: _375  and  _376
REMARK  150  A    between atoms: _379  and  _381
REMARK  151  A    between atoms: _381  and  _382
REMARK  152  A    between atoms: _381  and  _384
REMARK  153  A    between atoms: _384  and  _385
REMARK  154  A    between atoms: _388  and  _390
REMARK  155  A    between atoms: _390  and  _391
REMARK  156  A    between atoms: _390  and  _393
REMARK  157  A    between atoms: _393  and  _394
REMARK  158  A    between atoms: _397  and  _399
REMARK  159  A    between atoms: _399  and  _400
REMARK  160  A    between atoms: _399  and  _402
REMARK  161  A    between atoms: _402  and  _403
REMARK  162  A    between atoms: _406  and  _408
REMARK  163  A    between atoms: _408  and  _409
REMARK  164  A    between atoms: _408  and  _411
REMARK  165  A    between atoms: _411  and  _412
REMARK  166  A    between atoms: _415  and  _417
REMARK  167  A    between atoms: _417  and  _418
REMARK  168  A    between atoms: _417  and  _420
REMARK  169  A    between atoms: _420  and  _421
REMARK  170  A    between atoms: _424  and  _426
REMARK  171  A    between atoms: _426  and  _427
REMARK  172  A    between atoms: _430  and  _432
REMARK  173  A    between atoms: _432  and  _433
REMARK  174  A    between atoms: _432  and  _435
REMARK  175  A    between atoms: _435  and  _436
REMARK  176  A    between atoms: _439  and  _441
REMARK  177  A    between atoms: _441  and  _442
REMARK  178  A    between atoms: _441  and  _444
REMARK  179  A    between atoms: _444  and  _445
REMARK  180  A    between atoms: _448  and  _450
REMARK  181  A    between atoms: _450  and  _451
REMARK  182  A    between atoms: _450  and  _453
REMARK  183  A    between atoms: _453  and  _454
REMARK  184  A    between atoms: _457  and  _459
REMARK  185  A    between atoms: _459  and  _460
REMARK  186  A    between atoms: _459  and  _462
REMARK  187  A    between atoms: _462  and  _463
REMARK  188  A    between atoms: _463  and  _464
REMARK  189  A    between atoms: _464  and  _465
REMARK  190  A    between atoms: _465  and  _466
REMARK  191  A    between atoms: _470  and  _472
REMARK  192  A    between atoms: _472  and  _473
REMARK  193  A    between atoms: _472  and  _475
REMARK  194  A    between atoms: _475  and  _476
REMARK  195  A    between atoms: _479  and  _481
REMARK  196  A    between atoms: _481  and  _482
REMARK  197  A    between atoms: _481  and  _484
REMARK  198  A    between atoms: _484  and  _485
REMARK  199  A    between atoms: _488  and  _490
REMARK  200  A    between atoms: _490  and  _491
REMARK  201  A    between atoms: _490  and  _493
REMARK  202  A    between atoms: _493  and  _494
REMARK  203  A    between atoms: _498  and  _499
REMARK  204  A    between atoms: _504  and  _506
REMARK  205  A    between atoms: _506  and  _507
REMARK  206  A    between atoms: _506  and  _509
REMARK  207  A    between atoms: _509  and  _510
REMARK  208  A    between atoms: _515  and  _517
REMARK  209  A    between atoms: _517  and  _518
REMARK  210  A    between atoms: _517  and  _520
REMARK  211  A    between atoms: _520  and  _521
REMARK  212  A    between atoms: _521  and  _522
REMARK  213  A    between atoms: _522  and  _523
REMARK  214  A    between atoms: _523  and  _524
REMARK  215  A    between atoms: _528  and  _530
REMARK  216  A    between atoms: _530  and  _531
REMARK  217  A    between atoms: _530  and  _533
REMARK  218  A    between atoms: _533  and  _534
REMARK  219  A    between atoms: _534  and  _535
REMARK  220  A    between atoms: _538  and  _540
REMARK  221  A    between atoms: _540  and  _541
REMARK  222  A    between atoms: _540  and  _543
REMARK  223  A    between atoms: _543  and  _544
REMARK  224  A    between atoms: _547  and  _549
REMARK  225  A    between atoms: _549  and  _550
REMARK  226  A    between atoms: _549  and  _552
REMARK  227  A    between atoms: _552  and  _553
REMARK  228  A    between atoms: _553  and  _554
REMARK  229  A    between atoms: _554  and  _555
REMARK  230  A    between atoms: _564  and  _566
REMARK  231  A    between atoms: _566  and  _567
REMARK  232  A    between atoms: _566  and  _569
REMARK  233  A    between atoms: _569  and  _570
REMARK  234  A    between atoms: _572  and  _574
REMARK  235  A    between atoms: _574  and  _575
REMARK  236  A    between atoms: _574  and  _577
REMARK  237  A    between atoms: _577  and  _578
REMARK  238  A    between atoms: _584  and  _586
REMARK  239  A    between atoms: _586  and  _587
REMARK  240  A    between atoms: _590  and  _592
REMARK  241  A    between atoms: _592  and  _593
REMARK  242  A    between atoms: _592  and  _595
REMARK  243  A    between atoms: _595  and  _596
REMARK  244  A    between atoms: _596  and  _597
REMARK  245  A    between atoms: _600  and  _602
REMARK  246  A    between atoms: _602  and  _603
REMARK  247  A    between atoms: _602  and  _605
REMARK  248  A    between atoms: _605  and  _606
REMARK                            x       y       z     vdW  Elec       q    Type
REMARK                         _______ _______ _______ _____ _____    ______ ____
ROOT
ATOM      1  C   TRP A   4      10.162  33.335  -9.718  0.00  0.00    +0.241 C 
ATOM      2  N   SER A   5       9.627  34.403  -9.129  0.00  0.00    -0.295 N 
ATOM      3  H   SER A   5       8.809  34.878  -9.562  0.00  0.00    +0.150 HD
ATOM      4  O   TRP A   4      11.109  32.709  -9.226  0.00  0.00    -0.273 OA
ENDROOT
BRANCH   1   5
ATOM      5  CA  TRP A   4       9.576  32.896 -11.070  0.00  0.00    +0.153 C 
BRANCH   5   7
ATOM      6  C   ALA A   3       8.320  34.842 -11.840  0.00  0.00    +0.241 C 
ATOM      7  N   TRP A   4       8.340  33.573 -11.444  0.00  0.00    -0.297 N 
ATOM      8  H   TRP A   4       7.445  33.046 -11.400  0.00  0.00    +0.150 HD
ATOM      9  O   ALA A   3       9.344  35.531 -11.960  0.00  0.00    -0.273 OA
BRANCH   6  10
ATOM     10  CA  ALA A   3       6.941  35.433 -12.136  0.00  0.00    +0.149 C 
ATOM     11  CB  ALA A   3       6.510  35.103 -13.556  0.00  0.00    +0.031 C 
BRANCH  10  14
ATOM     12  C   PRO A   2       7.209  37.383 -10.731  0.00  0.00    +0.241 C 
ATOM     13  O   PRO A   2       7.268  36.689  -9.711  0.00  0.00    -0.273 OA
ATOM     14  N   ALA A   3       7.002  36.872 -11.941  0.00  0.00    -0.297 N 
ATOM     15  H   ALA A   3       6.883  37.508 -12.755  0.00  0.00    +0.150 HD
BRANCH  12  21
ATOM     16  C   ALA A   1       5.466  39.113  -9.143  0.00  0.00    +0.241 C 
ATOM     17  N   PRO A   2       6.748  39.421  -9.398  0.00  0.00    -0.272 N 
ATOM     18  CD  PRO A   2       7.719  40.181  -8.597  0.00  0.00    +0.094 C 
ATOM     19  CG  PRO A   2       9.023  39.655  -9.087  0.00  0.00    +0.024 C 
ATOM     20  CB  PRO A   2       8.805  39.318 -10.535  0.00  0.00    +0.031 C 
ATOM     21  CA  PRO A   2       7.339  38.900 -10.636  0.00  0.00    +0.152 C 
ATOM     22  O   ALA A   1       4.796  38.404  -9.893  0.00  0.00    -0.273 OA
BRANCH  16  23
ATOM     23  CA  ALA A   1       4.852  39.682  -7.876  0.00  0.00    +0.145 C 
ATOM     24  CB  ALA A   1       5.281  38.882  -6.668  0.00  0.00    +0.028 C 
BRANCH  23  25
ATOM     25  N   ALA A   1       3.398  39.686  -7.988  0.00  0.00    -0.238 NA
ATOM     26  H   ALA A   1       2.836  39.061  -7.376  0.00  0.00    +0.142 HD
ENDBRANCH  23  25
ENDBRANCH  16  23
ENDBRANCH  12  21
ENDBRANCH  10  14
ENDBRANCH   6  10
ENDBRANCH   5   7
BRANCH   5  27
ATOM     27  CB  TRP A   4      10.630  33.090 -12.159  0.00  0.00    +0.057 C 
BRANCH  27  28
ATOM     28  CG  TRP A   4      10.135  32.790 -13.549  0.00  0.00    -0.002 A 
ATOM     29  CD2 TRP A   4      10.092  31.506 -14.182  0.00  0.00    +0.013 A 
ATOM     30  CE3 TRP A   4      10.454  30.219 -13.787  0.00  0.00    +0.001 A 
ATOM     31  CZ3 TRP A   4      10.277  29.174 -14.674  0.00  0.00    +0.000 A 
ATOM     32  CH2 TRP A   4       9.752  29.388 -15.954  0.00  0.00    +0.001 A 
ATOM     33  CZ2 TRP A   4       9.389  30.636 -16.374  0.00  0.00    +0.017 A 
ATOM     34  CE2 TRP A   4       9.565  31.692 -15.479  0.00  0.00    +0.056 A 
ATOM     35  NE1 TRP A   4       9.299  33.030 -15.628  0.00  0.00    -0.352 N 
ATOM     36  HE1 TRP A   4       8.901  33.477 -16.479  0.00  0.00    +0.166 HD
ATOM     37  CD1 TRP A   4       9.646  33.686 -14.463  0.00  0.00    +0.068 A 
ENDBRANCH  27  28
ENDBRANCH   5  27
ENDBRANCH   1   5
BRANCH   2  38
ATOM     38  CA  SER A   5      10.184  34.910  -7.878  0.00  0.00    +0.178 C 
BRANCH  38  39
ATOM     39  C   SER A   5       9.752  34.049  -6.691  0.00  0.00    +0.246 C 
ATOM     40  N   PRO A   6      10.445  34.194  -5.557  0.00  0.00    -0.272 N 
ATOM     41  CA  PRO A   6      10.118  33.408  -4.356  0.00  0.00    +0.152 C 
ATOM     42  CB  PRO A   6      11.158  33.872  -3.340  0.00  0.00    +0.031 C 
ATOM     43  CG  PRO A   6      12.332  34.291  -4.185  0.00  0.00    +0.024 C 
ATOM     44  CD  PRO A   6      11.735  34.897  -5.423  0.00  0.00    +0.094 C 
ATOM     45  O   SER A   5       8.831  33.247  -6.804  0.00  0.00    -0.273 OA
BRANCH  41  46
ATOM     46  C   PRO A   6       8.707  33.696  -3.866  0.00  0.00    +0.241 C 
ATOM     47  N   ARG A   7       8.094  32.730  -3.189  0.00  0.00    -0.298 N 
ATOM     48  H   ARG A   7       8.615  31.864  -2.945  0.00  0.00    +0.150 HD
ATOM     49  O   PRO A   6       8.180  34.781  -4.137  0.00  0.00    -0.273 OA
BRANCH  47  50
ATOM     50  CA  ARG A   7       6.694  32.870  -2.783  0.00  0.00    +0.137 C 
BRANCH  50  51
ATOM     51  C   ARG A   7       6.421  32.082  -1.529  0.00  0.00    +0.227 C 
ATOM     52  O   ARG A   7       6.962  30.988  -1.343  0.00  0.00    -0.286 OA
ENDBRANCH  50  51
BRANCH  50  53
ATOM     53  CB  ARG A   7       5.727  32.406  -3.882  0.00  0.00    +0.031 C 
BRANCH  53  54
ATOM     54  CG  ARG A   7       5.636  30.889  -4.082  0.00  0.00    +0.045 C 
BRANCH  54  55
ATOM     55  CD  ARG A   7       6.876  30.318  -4.798  0.00  0.00    +0.174 C 
BRANCH  55  56
ATOM     56  NE  ARG A   7       7.137  31.084  -6.012  0.00  0.00    -0.265 N 
ATOM     57  HE  ARG A   7       7.786  31.893  -5.940  0.00  0.00    +0.259 HD
ATOM     58  CZ  ARG A   7       6.606  30.824  -7.206  0.00  0.00    +0.342 C 
ATOM     59  NH2 ARG A   7       5.824  29.768  -7.386  0.00  0.00    -0.292 N 
ATOM     60 HH21 ARG A   7       5.619  29.131  -6.590  0.00  0.00    +0.255 HD
ATOM     61 HH22 ARG A   7       5.416  29.577  -8.323  0.00  0.00    +0.255 HD
ATOM     62  NH1 ARG A   7       6.881  31.612  -8.235  0.00  0.00    -0.292 N 
ATOM     63 HH11 ARG A   7       7.510  32.431  -8.109  0.00  0.00    +0.255 HD
ATOM     64 HH12 ARG A   7       6.468  31.412  -9.168  0.00  0.00    +0.255 HD
ENDBRANCH  55  56
ENDBRANCH  54  55
ENDBRANCH  53  54
ENDBRANCH  50  53
ENDBRANCH  47  50
ENDBRANCH  41  46
ENDBRANCH  38  39
BRANCH  38  65
ATOM     65  CB  SER A   5       9.792  36.371  -7.655  0.00  0.00    +0.166 C 
BRANCH  65  66
ATOM     66  OG  SER A   5       8.406  36.493  -7.400  0.00  0.00    -0.380 OA
ATOM     67  H   SER A   5       7.897  36.143  -8.174  0.00  0.00    +0.211 HD
ENDBRANCH  65  66
ENDBRANCH  38  65
ENDBRANCH   2  38
TORSDOF 20
REMARK  Name = ../refined-set-2016/4pzv/4pzv_pocket.pdb
REMARK  248 active torsions:
REMARK  status: ('A' for Active; 'I' for Inactive)
REMARK    1  A    between atoms: _1  and  _3
REMARK    2  A    between atoms: _3  and  _4
REMARK    3  A    between atoms: _3  and  _6
REMARK    4  A    between atoms: _6  and  _7
REMARK    5  A    between atoms: _10  and  _12
REMARK    6  A    between atoms: _12  and  _13
REMARK    7  A    between atoms: _12  and  _15
REMARK    8  A    between atoms: _15  and  _16
REMARK    9  A    between atoms: _19  and  _21
REMARK   10  A    between atoms: _21  and  _22
REMARK   11  A    between atoms: _24  and  _26
REMARK   12  A    between atoms: _26  and  _27
REMARK   13  A    between atoms: _26  and  _29
REMARK   14  A    between atoms: _29  and  _30
REMARK   15  A    between atoms: _33  and  _35
REMARK   16  A    between atoms: _35  and  _36
REMARK   17  A    between atoms: _38  and  _40
REMARK   18  A    between atoms: _40  and  _41
REMARK   19  A    between atoms: _40  and  _43
REMARK   20  A    between atoms: _43  and  _44
REMARK   21  A    between atoms: _47  and  _49
REMARK   22  A    between atoms: _49  and  _50
REMARK   23  A    between atoms: _49  and  _52
REMARK   24  A    between atoms: _52  and  _53
REMARK   25  A    between atoms: _58  and  _60
REMARK   26  A    between atoms: _60  and  _61
REMARK   27  A    between atoms: _60  and  _63
REMARK   28  A    between atoms: _63  and  _64
REMARK   29  A    between atoms: _69  and  _70
REMARK   30  A    between atoms: _72  and  _74
REMARK   31  A    between atoms: _74  and  _75
REMARK   32  A    between atoms: _74  and  _77
REMARK   33  A    between atoms: _77  and  _78
REMARK   34  A    between atoms: _80  and  _82
REMARK   35  A    between atoms: _82  and  _83
REMARK   36  A    between atoms: _82  and  _85
REMARK   37  A    between atoms: _85  and  _86
REMARK   38  A    between atoms: _88  and  _90
REMARK   39  A    between atoms: _90  and  _91
REMARK   40  A    between atoms: _90  and  _93
REMARK   41  A    between atoms: _93  and  _94
REMARK   42  A    between atoms: _94  and  _95
REMARK   43  A    between atoms: _95  and  _96
REMARK   44  A    between atoms: _96  and  _97
REMARK   45  A    between atoms: _101  and  _103
REMARK   46  A    between atoms: _103  and  _104
REMARK   47  A    between atoms: _107  and  _109
REMARK   48  A    between atoms: _109  and  _110
REMARK   49  A    between atoms: _109  and  _112
REMARK   50  A    between atoms: _115  and  _117
REMARK   51  A    between atoms: _117  and  _118
REMARK   52  A    between atoms: _117  and  _120
REMARK   53  A    between atoms: _120  and  _121
REMARK   54  A    between atoms: _124  and  _126
REMARK   55  A    between atoms: _126  and  _127
REMARK   56  A    between atoms: _126  and  _129
REMARK   57  A    between atoms: _129  and  _130
REMARK   58  A    between atoms: _130  and  _131
REMARK   59  A    between atoms: _131  and  _132
REMARK   60  A    between atoms: _132  and  _133
REMARK   61  A    between atoms: _137  and  _139
REMARK   62  A    between atoms: _139  and  _140
REMARK   63  A    between atoms: _139  and  _142
REMARK   64  A    between atoms: _142  and  _143
REMARK   65  A    between atoms: _153  and  _155
REMARK   66  A    between atoms: _155  and  _156
REMARK   67  A    between atoms: _155  and  _158
REMARK   68  A    between atoms: _158  and  _159
REMARK   69  A    between atoms: _162  and  _164
REMARK   70  A    between atoms: _164  and  _165
REMARK   71  A    between atoms: _164  and  _167
REMARK   72  A    between atoms: _167  and  _168
REMARK   73  A    between atoms: _168  and  _169
REMARK   74  A    between atoms: _169  and  _170
REMARK   75  A    between atoms: _179  and  _181
REMARK   76  A    between atoms: _181  and  _182
REMARK   77  A    between atoms: _181  and  _184
REMARK   78  A    between atoms: _184  and  _185
REMARK   79  A    between atoms: _191  and  _193
REMARK   80  A    between atoms: _193  and  _194
REMARK   81  A    between atoms: _193  and  _196
REMARK   82  A    between atoms: _196  and  _197
REMARK   83  A    between atoms: _200  and  _202
REMARK   84  A    between atoms: _202  and  _203
REMARK   85  A    between atoms: _202  and  _205
REMARK   86  A    between atoms: _205  and  _206
REMARK   87  A    between atoms: _211  and  _213
REMARK   88  A    between atoms: _213  and  _214
REMARK   89  A    between atoms: _213  and  _216
REMARK   90  A    between atoms: _216  and  _217
REMARK   91  A    between atoms: _221  and  _222
REMARK   92  A    between atoms: _227  and  _229
REMARK   93  A    between atoms: _229  and  _230
REMARK   94  A    between atoms: _229  and  _232
REMARK   95  A    between atoms: _232  and  _233
REMARK   96  A    between atoms: _236  and  _238
REMARK   97  A    between atoms: _238  and  _239
REMARK   98  A    between atoms: _238  and  _241
REMARK   99  A    between atoms: _241  and  _242
REMARK  100  A    between atoms: _245  and  _247
REMARK  101  A    between atoms: _247  and  _248
REMARK  102  A    between atoms: _247  and  _250
REMARK  103  A    between atoms: _250  and  _251
REMARK  104  A    between atoms: _254  and  _256
REMARK  105  A    between atoms: _256  and  _257
REMARK  106  A    between atoms: _256  and  _259
REMARK  107  A    between atoms: _259  and  _260
REMARK  108  A    between atoms: _260  and  _261
REMARK  109  A    between atoms: _261  and  _262
REMARK  110  A    between atoms: _262  and  _263
REMARK  111  A    between atoms: _267  and  _269
REMARK  112  A    between atoms: _269  and  _270
REMARK  113  A    between atoms: _269  and  _272
REMARK  114  A    between atoms: _272  and  _273
REMARK  115  A    between atoms: _273  and  _274
REMARK  116  A    between atoms: _277  and  _279
REMARK  117  A    between atoms: _279  and  _280
REMARK  118  A    between atoms: _279  and  _282
REMARK  119  A    between atoms: _282  and  _283
REMARK  120  A    between atoms: _283  and  _284
REMARK  121  A    between atoms: _284  and  _285
REMARK  122  A    between atoms: _294  and  _296
REMARK  123  A    between atoms: _296  and  _297
REMARK  124  A    between atoms: _296  and  _299
REMARK  125  A    between atoms: _299  and  _300
REMARK  126  A    between atoms: _303  and  _305
REMARK  127  A    between atoms: _305  and  _306
REMARK  128  A    between atoms: _310  and  _311
REMARK  129  A    between atoms: _316  and  _318
REMARK  130  A    between atoms: _318  and  _319
REMARK  131  A    between atoms: _322  and  _324
REMARK  132  A    between atoms: _324  and  _325
REMARK  133  A    between atoms: _324  and  _327
REMARK  134  A    between atoms: _327  and  _328
REMARK  135  A    between atoms: _338  and  _340
REMARK  136  A    between atoms: _340  and  _341
REMARK  137  A    between atoms: _340  and  _343
REMARK  138  A    between atoms: _343  and  _344
REMARK  139  A    between atoms: _347  and  _348
REMARK  140  A    between atoms: _353  and  _355
REMARK  141  A    between atoms: _355  and  _356
REMARK  142  A    between atoms: _355  and  _358
REMARK  143  A    between atoms: _358  and  _359
REMARK  144  A    between atoms: _359  and  _360
REMARK  145  A    between atoms: _360  and  _361
REMARK  146  A    between atoms: _370  and  _372
REMARK  147  A    between atoms: _372  and  _373
REMARK  148  A    between atoms: _372  and  _375
REMARK  149  A    between atoms: _375  and  _376
REMARK  150  A    between atoms: _379  and  _381
REMARK  151  A    between atoms: _381  and  _382
REMARK  152  A    between atoms: _381  and  _384
REMARK  153  A    between atoms: _384  and  _385
REMARK  154  A    between atoms: _388  and  _390
REMARK  155  A    between atoms: _390  and  _391
REMARK  156  A    between atoms: _390  and  _393
REMARK  157  A    between atoms: _393  and  _394
REMARK  158  A    between atoms: _397  and  _399
REMARK  159  A    between atoms: _399  and  _400
REMARK  160  A    between atoms: _399  and  _402
REMARK  161  A    between atoms: _402  and  _403
REMARK  162  A    between atoms: _406  and  _408
REMARK  163  A    between atoms: _408  and  _409
REMARK  164  A    between atoms: _408  and  _411
REMARK  165  A    between atoms: _411  and  _412
REMARK  166  A    between atoms: _415  and  _417
REMARK  167  A    between atoms: _417  and  _418
REMARK  168  A    between atoms: _417  and  _420
REMARK  169  A    between atoms: _420  and  _421
REMARK  170  A    between atoms: _424  and  _426
REMARK  171  A    between atoms: _426  and  _427
REMARK  172  A    between atoms: _430  and  _432
REMARK  173  A    between atoms: _432  and  _433
REMARK  174  A    between atoms: _432  and  _435
REMARK  175  A    between atoms: _435  and  _436
REMARK  176  A    between atoms: _439  and  _441
REMARK  177  A    between atoms: _441  and  _442
REMARK  178  A    between atoms: _441  and  _444
REMARK  179  A    between atoms: _444  and  _445
REMARK  180  A    between atoms: _448  and  _450
REMARK  181  A    between atoms: _450  and  _451
REMARK  182  A    between atoms: _450  and  _453
REMARK  183  A    between atoms: _453  and  _454
REMARK  184  A    between atoms: _457  and  _459
REMARK  185  A    between atoms: _459  and  _460
REMARK  186  A    between atoms: _459  and  _462
REMARK  187  A    between atoms: _462  and  _463
REMARK  188  A    between atoms: _463  and  _464
REMARK  189  A    between atoms: _464  and  _465
REMARK  190  A    between atoms: _465  and  _466
REMARK  191  A    between atoms: _470  and  _472
REMARK  192  A    between atoms: _472  and  _473
REMARK  193  A    between atoms: _472  and  _475
REMARK  194  A    between atoms: _475  and  _476
REMARK  195  A    between atoms: _479  and  _481
REMARK  196  A    between atoms: _481  and  _482
REMARK  197  A    between atoms: _481  and  _484
REMARK  198  A    between atoms: _484  and  _485
REMARK  199  A    between atoms: _488  and  _490
REMARK  200  A    between atoms: _490  and  _491
REMARK  201  A    between atoms: _490  and  _493
REMARK  202  A    between atoms: _493  and  _494
REMARK  203  A    between atoms: _498  and  _499
REMARK  204  A    between atoms: _504  and  _506
REMARK  205  A    between atoms: _506  and  _507
REMARK  206  A    between atoms: _506  and  _509
REMARK  207  A    between atoms: _509  and  _510
REMARK  208  A    between atoms: _515  and  _517
REMARK  209  A    between atoms: _517  and  _518
REMARK  210  A    between atoms: _517  and  _520
REMARK  211  A    between atoms: _520  and  _521
REMARK  212  A    between atoms: _521  and  _522
REMARK  213  A    between atoms: _522  and  _523
REMARK  214  A    between atoms: _523  and  _524
REMARK  215  A    between atoms: _528  and  _530
REMARK  216  A    between atoms: _530  and  _531
REMARK  217  A    between atoms: _530  and  _533
REMARK  218  A    between atoms: _533  and  _534
REMARK  219  A    between atoms: _534  and  _535
REMARK  220  A    between atoms: _538  and  _540
REMARK  221  A    between atoms: _540  and  _541
REMARK  222  A    between atoms: _540  and  _543
REMARK  223  A    between atoms: _543  and  _544
REMARK  224  A    between atoms: _547  and  _549
REMARK  225  A    between atoms: _549  and  _550
REMARK  226  A    between atoms: _549  and  _552
REMARK  227  A    between atoms: _552  and  _553
REMARK  228  A    between atoms: _553  and  _554
REMARK  229  A    between atoms: _554  and  _555
REMARK  230  A    between atoms: _564  and  _566
REMARK  231  A    between atoms: _566  and  _567
REMARK  232  A    between atoms: _566  and  _569
REMARK  233  A    between atoms: _569  and  _570
REMARK  234  A    between atoms: _572  and  _574
REMARK  235  A    between atoms: _574  and  _575
REMARK  236  A    between atoms: _574  and  _577
REMARK  237  A    between atoms: _577  and  _578
REMARK  238  A    between atoms: _584  and  _586
REMARK  239  A    between atoms: _586  and  _587
REMARK  240  A    between atoms: _590  and  _592
REMARK  241  A    between atoms: _592  and  _593
REMARK  242  A    between atoms: _592  and  _595
REMARK  243  A    between atoms: _595  and  _596
REMARK  244  A    between atoms: _596  and  _597
REMARK  245  A    between atoms: _600  and  _602
REMARK  246  A    between atoms: _602  and  _603
REMARK  247  A    between atoms: _602  and  _605
REMARK  248  A    between atoms: _605  and  _606
REMARK                            x       y       z     vdW  Elec       q    Type
REMARK                         _______ _______ _______ _____ _____    ______ ____
ROOT
ATOM      1  CA  ASP A   4      -2.318  24.809  -8.470  0.00  0.00    +0.160 C 
ENDROOT
BRANCH   1   2
ATOM      2  C   ASP A   4      -3.054  23.493  -8.597  0.00  0.00    +0.241 C 
ATOM      3  O   ASP A   4      -2.911  22.597  -7.762  0.00  0.00    -0.273 OA
ATOM      4  N   ILE A   5      -3.863  23.394  -9.644  0.00  0.00    -0.297 N 
ATOM      5  H   ILE A   5      -3.980  24.211 -10.276  0.00  0.00    +0.150 HD
BRANCH   4   6
ATOM      6  CA  ILE A   5      -4.589  22.167  -9.925  0.00  0.00    +0.149 C 
BRANCH   6   7
ATOM      7  C   ILE A   5      -3.724  21.354 -10.872  0.00  0.00    +0.241 C 
ATOM      8  N   LEU A   6      -3.141  20.270 -10.366  0.00  0.00    -0.297 N 
ATOM      9  H   LEU A   6      -3.299  20.014  -9.370  0.00  0.00    +0.150 HD
ATOM     10  O   ILE A   5      -3.566  21.715 -12.036  0.00  0.00    -0.273 OA
BRANCH   8  11
ATOM     11  CA  LEU A   6      -2.279  19.437 -11.203  0.00  0.00    +0.149 C 
BRANCH  11  12
ATOM     12  C   LEU A   6      -3.064  18.513 -12.127  0.00  0.00    +0.241 C 
ATOM     13  N   ALA A   7      -4.113  17.906 -11.594  0.00  0.00    -0.298 N 
ATOM     14  H   ALA A   7      -4.345  18.080 -10.595  0.00  0.00    +0.150 HD
ATOM     15  O   LEU A   6      -2.691  18.307 -13.279  0.00  0.00    -0.273 OA
BRANCH  13  16
ATOM     16  CA  ALA A   7      -4.951  17.000 -12.369  0.00  0.00    +0.137 C 
ATOM     17  CB  ALA A   7      -4.362  15.597 -12.368  0.00  0.00    +0.030 C 
BRANCH  16  18
ATOM     18  C   ALA A   7      -6.343  16.972 -11.787  0.00  0.00    +0.227 C 
ATOM     19  O   ALA A   7      -6.540  17.323 -10.639  0.00  0.00    -0.286 OA
ENDBRANCH  16  18
ENDBRANCH  13  16
ENDBRANCH  11  12
BRANCH  11  20
ATOM     20  CB  LEU A   6      -1.367  18.580 -10.322  0.00  0.00    +0.029 C 
BRANCH  20  21
ATOM     21  CG  LEU A   6      -0.352  19.329  -9.465  0.00  0.00    +0.002 C 
ATOM     22  CD2 LEU A   6       0.560  18.337  -8.791  0.00  0.00    +0.000 C 
ATOM     23  CD1 LEU A   6       0.469  20.310 -10.281  0.00  0.00    +0.000 C 
ENDBRANCH  20  21
ENDBRANCH  11  20
ENDBRANCH   8  11
ENDBRANCH   6   7
BRANCH   6  24
ATOM     24  CB  ILE A   5      -5.973  22.412 -10.553  0.00  0.00    +0.027 C 
ATOM     25  CG2 ILE A   5      -6.694  21.080 -10.700  0.00  0.00    +0.002 C 
BRANCH  24  26
ATOM     26  CG1 ILE A   5      -6.794  23.382  -9.699  0.00  0.00    +0.002 C 
ATOM     27  CD1 ILE A   5      -8.099  23.831 -10.356  0.00  0.00    +0.000 C 
ENDBRANCH  24  26
ENDBRANCH   6  24
ENDBRANCH   4   6
ENDBRANCH   1   2
BRANCH   1  30
ATOM     28  C   LEU A   3      -1.861  26.171  -6.547  0.00  0.00    +0.241 C 
ATOM     29  O   LEU A   3      -2.327  27.155  -7.107  0.00  0.00    -0.273 OA
ATOM     30  N   ASP A   4      -1.785  24.988  -7.134  0.00  0.00    -0.297 N 
ATOM     31  H   ASP A   4      -1.344  24.188  -6.638  0.00  0.00    +0.150 HD
BRANCH  28  32
ATOM     32  CA  LEU A   3      -1.346  26.265  -5.120  0.00  0.00    +0.149 C 
BRANCH  32  35
ATOM     33  C   ASP A   2       0.829  27.189  -4.510  0.00  0.00    +0.241 C 
ATOM     34  O   ASP A   2       1.235  26.110  -4.070  0.00  0.00    -0.273 OA
ATOM     35  N   LEU A   3      -0.387  27.358  -5.024  0.00  0.00    -0.297 N 
ATOM     36  H   LEU A   3      -0.662  28.300  -5.368  0.00  0.00    +0.150 HD
BRANCH  33  37
ATOM     37  CA  ASP A   2       1.698  28.435  -4.409  0.00  0.00    +0.160 C 
BRANCH  37  40
ATOM     38  C   ILE A   1       2.316  29.688  -2.431  0.00  0.00    +0.238 C 
ATOM     39  O   ILE A   1       2.125  30.756  -3.001  0.00  0.00    -0.274 OA
ATOM     40  N   ASP A   2       2.140  28.522  -3.030  0.00  0.00    -0.297 N 
ATOM     41  H   ASP A   2       2.323  27.646  -2.500  0.00  0.00    +0.150 HD
BRANCH  38  42
ATOM     42  CA  ILE A   1       2.760  29.619  -0.970  0.00  0.00    +0.145 C 
BRANCH  42  43
ATOM     43  N   ILE A   1       3.576  30.784  -0.612  0.00  0.00    -0.238 NA
ATOM     44  H   ILE A   1       3.467  31.663  -1.157  0.00  0.00    +0.142 HD
ENDBRANCH  42  43
BRANCH  42  45
ATOM     45  CB  ILE A   1       1.495  29.489  -0.093  0.00  0.00    +0.025 C 
ATOM     46  CG2 ILE A   1       0.399  30.424  -0.591  0.00  0.00    +0.002 C 
BRANCH  45  47
ATOM     47  CG1 ILE A   1       0.958  28.056  -0.085  0.00  0.00    +0.002 C 
ATOM     48  CD1 ILE A   1       1.907  27.039   0.526  0.00  0.00    +0.000 C 
ENDBRANCH  45  47
ENDBRANCH  42  45
ENDBRANCH  38  42
ENDBRANCH  37  40
BRANCH  37  49
ATOM     49  CB  ASP A   2       2.919  28.388  -5.332  0.00  0.00    +0.143 C 
BRANCH  49  50
ATOM     50  CG  ASP A   2       2.656  27.648  -6.627  0.00  0.00    +0.367 C 
ATOM     51  OD2 ASP A   2       3.084  26.478  -6.719  0.00  0.00    -0.246 OA
ATOM     52  OD1 ASP A   2       2.040  28.238  -7.550  0.00  0.00    -0.246 OA
ENDBRANCH  49  50
ENDBRANCH  37  49
ENDBRANCH  33  37
ENDBRANCH  32  35
BRANCH  32  53
ATOM     53  CB  LEU A   3      -2.523  26.510  -4.192  0.00  0.00    +0.029 C 
BRANCH  53  54
ATOM     54  CG  LEU A   3      -2.125  26.735  -2.737  0.00  0.00    +0.002 C 
ATOM     55  CD2 LEU A   3      -3.312  27.061  -1.906  0.00  0.00    +0.000 C 
ATOM     56  CD1 LEU A   3      -1.470  25.487  -2.230  0.00  0.00    +0.000 C 
ENDBRANCH  53  54
ENDBRANCH  32  53
ENDBRANCH  28  32
ENDBRANCH   1  30
BRANCH   1  57
ATOM     57  CB  ASP A   4      -1.207  24.913  -9.512  0.00  0.00    +0.143 C 
BRANCH  57  58
ATOM     58  CG  ASP A   4       0.010  24.099  -9.148  0.00  0.00    +0.367 C 
ATOM     59  OD2 ASP A   4      -0.146  23.035  -8.522  0.00  0.00    -0.246 OA
ATOM     60  OD1 ASP A   4       1.127  24.538  -9.478  0.00  0.00    -0.246 OA
ENDBRANCH  57  58
ENDBRANCH   1  57
TORSDOF 26
REMARK  Name = ../refined-set-2016/4pzv/4pzv_pocket.pdb
REMARK  248 active torsions:
REMARK  status: ('A' for Active; 'I' for Inactive)
REMARK    1  A    between atoms: _1  and  _3
REMARK    2  A    between atoms: _3  and  _4
REMARK    3  A    between atoms: _3  and  _6
REMARK    4  A    between atoms: _6  and  _7
REMARK    5  A    between atoms: _10  and  _12
REMARK    6  A    between atoms: _12  and  _13
REMARK    7  A    between atoms: _12  and  _15
REMARK    8  A    between atoms: _15  and  _16
REMARK    9  A    between atoms: _19  and  _21
REMARK   10  A    between atoms: _21  and  _22
REMARK   11  A    between atoms: _24  and  _26
REMARK   12  A    between atoms: _26  and  _27
REMARK   13  A    between atoms: _26  and  _29
REMARK   14  A    between atoms: _29  and  _30
REMARK   15  A    between atoms: _33  and  _35
REMARK   16  A    between atoms: _35  and  _36
REMARK   17  A    between atoms: _38  and  _40
REMARK   18  A    between atoms: _40  and  _41
REMARK   19  A    between atoms: _40  and  _43
REMARK   20  A    between atoms: _43  and  _44
REMARK   21  A    between atoms: _47  and  _49
REMARK   22  A    between atoms: _49  and  _50
REMARK   23  A    between atoms: _49  and  _52
REMARK   24  A    between atoms: _52  and  _53
REMARK   25  A    between atoms: _58  and  _60
REMARK   26  A    between atoms: _60  and  _61
REMARK   27  A    between atoms: _60  and  _63
REMARK   28  A    between atoms: _63  and  _64
REMARK   29  A    between atoms: _69  and  _70
REMARK   30  A    between atoms: _72  and  _74
REMARK   31  A    between atoms: _74  and  _75
REMARK   32  A    between atoms: _74  and  _77
REMARK   33  A    between atoms: _77  and  _78
REMARK   34  A    between atoms: _80  and  _82
REMARK   35  A    between atoms: _82  and  _83
REMARK   36  A    between atoms: _82  and  _85
REMARK   37  A    between atoms: _85  and  _86
REMARK   38  A    between atoms: _88  and  _90
REMARK   39  A    between atoms: _90  and  _91
REMARK   40  A    between atoms: _90  and  _93
REMARK   41  A    between atoms: _93  and  _94
REMARK   42  A    between atoms: _94  and  _95
REMARK   43  A    between atoms: _95  and  _96
REMARK   44  A    between atoms: _96  and  _97
REMARK   45  A    between atoms: _101  and  _103
REMARK   46  A    between atoms: _103  and  _104
REMARK   47  A    between atoms: _107  and  _109
REMARK   48  A    between atoms: _109  and  _110
REMARK   49  A    between atoms: _109  and  _112
REMARK   50  A    between atoms: _115  and  _117
REMARK   51  A    between atoms: _117  and  _118
REMARK   52  A    between atoms: _117  and  _120
REMARK   53  A    between atoms: _120  and  _121
REMARK   54  A    between atoms: _124  and  _126
REMARK   55  A    between atoms: _126  and  _127
REMARK   56  A    between atoms: _126  and  _129
REMARK   57  A    between atoms: _129  and  _130
REMARK   58  A    between atoms: _130  and  _131
REMARK   59  A    between atoms: _131  and  _132
REMARK   60  A    between atoms: _132  and  _133
REMARK   61  A    between atoms: _137  and  _139
REMARK   62  A    between atoms: _139  and  _140
REMARK   63  A    between atoms: _139  and  _142
REMARK   64  A    between atoms: _142  and  _143
REMARK   65  A    between atoms: _153  and  _155
REMARK   66  A    between atoms: _155  and  _156
REMARK   67  A    between atoms: _155  and  _158
REMARK   68  A    between atoms: _158  and  _159
REMARK   69  A    between atoms: _162  and  _164
REMARK   70  A    between atoms: _164  and  _165
REMARK   71  A    between atoms: _164  and  _167
REMARK   72  A    between atoms: _167  and  _168
REMARK   73  A    between atoms: _168  and  _169
REMARK   74  A    between atoms: _169  and  _170
REMARK   75  A    between atoms: _179  and  _181
REMARK   76  A    between atoms: _181  and  _182
REMARK   77  A    between atoms: _181  and  _184
REMARK   78  A    between atoms: _184  and  _185
REMARK   79  A    between atoms: _191  and  _193
REMARK   80  A    between atoms: _193  and  _194
REMARK   81  A    between atoms: _193  and  _196
REMARK   82  A    between atoms: _196  and  _197
REMARK   83  A    between atoms: _200  and  _202
REMARK   84  A    between atoms: _202  and  _203
REMARK   85  A    between atoms: _202  and  _205
REMARK   86  A    between atoms: _205  and  _206
REMARK   87  A    between atoms: _211  and  _213
REMARK   88  A    between atoms: _213  and  _214
REMARK   89  A    between atoms: _213  and  _216
REMARK   90  A    between atoms: _216  and  _217
REMARK   91  A    between atoms: _221  and  _222
REMARK   92  A    between atoms: _227  and  _229
REMARK   93  A    between atoms: _229  and  _230
REMARK   94  A    between atoms: _229  and  _232
REMARK   95  A    between atoms: _232  and  _233
REMARK   96  A    between atoms: _236  and  _238
REMARK   97  A    between atoms: _238  and  _239
REMARK   98  A    between atoms: _238  and  _241
REMARK   99  A    between atoms: _241  and  _242
REMARK  100  A    between atoms: _245  and  _247
REMARK  101  A    between atoms: _247  and  _248
REMARK  102  A    between atoms: _247  and  _250
REMARK  103  A    between atoms: _250  and  _251
REMARK  104  A    between atoms: _254  and  _256
REMARK  105  A    between atoms: _256  and  _257
REMARK  106  A    between atoms: _256  and  _259
REMARK  107  A    between atoms: _259  and  _260
REMARK  108  A    between atoms: _260  and  _261
REMARK  109  A    between atoms: _261  and  _262
REMARK  110  A    between atoms: _262  and  _263
REMARK  111  A    between atoms: _267  and  _269
REMARK  112  A    between atoms: _269  and  _270
REMARK  113  A    between atoms: _269  and  _272
REMARK  114  A    between atoms: _272  and  _273
REMARK  115  A    between atoms: _273  and  _274
REMARK  116  A    between atoms: _277  and  _279
REMARK  117  A    between atoms: _279  and  _280
REMARK  118  A    between atoms: _279  and  _282
REMARK  119  A    between atoms: _282  and  _283
REMARK  120  A    between atoms: _283  and  _284
REMARK  121  A    between atoms: _284  and  _285
REMARK  122  A    between atoms: _294  and  _296
REMARK  123  A    between atoms: _296  and  _297
REMARK  124  A    between atoms: _296  and  _299
REMARK  125  A    between atoms: _299  and  _300
REMARK  126  A    between atoms: _303  and  _305
REMARK  127  A    between atoms: _305  and  _306
REMARK  128  A    between atoms: _310  and  _311
REMARK  129  A    between atoms: _316  and  _318
REMARK  130  A    between atoms: _318  and  _319
REMARK  131  A    between atoms: _322  and  _324
REMARK  132  A    between atoms: _324  and  _325
REMARK  133  A    between atoms: _324  and  _327
REMARK  134  A    between atoms: _327  and  _328
REMARK  135  A    between atoms: _338  and  _340
REMARK  136  A    between atoms: _340  and  _341
REMARK  137  A    between atoms: _340  and  _343
REMARK  138  A    between atoms: _343  and  _344
REMARK  139  A    between atoms: _347  and  _348
REMARK  140  A    between atoms: _353  and  _355
REMARK  141  A    between atoms: _355  and  _356
REMARK  142  A    between atoms: _355  and  _358
REMARK  143  A    between atoms: _358  and  _359
REMARK  144  A    between atoms: _359  and  _360
REMARK  145  A    between atoms: _360  and  _361
REMARK  146  A    between atoms: _370  and  _372
REMARK  147  A    between atoms: _372  and  _373
REMARK  148  A    between atoms: _372  and  _375
REMARK  149  A    between atoms: _375  and  _376
REMARK  150  A    between atoms: _379  and  _381
REMARK  151  A    between atoms: _381  and  _382
REMARK  152  A    between atoms: _381  and  _384
REMARK  153  A    between atoms: _384  and  _385
REMARK  154  A    between atoms: _388  and  _390
REMARK  155  A    between atoms: _390  and  _391
REMARK  156  A    between atoms: _390  and  _393
REMARK  157  A    between atoms: _393  and  _394
REMARK  158  A    between atoms: _397  and  _399
REMARK  159  A    between atoms: _399  and  _400
REMARK  160  A    between atoms: _399  and  _402
REMARK  161  A    between atoms: _402  and  _403
REMARK  162  A    between atoms: _406  and  _408
REMARK  163  A    between atoms: _408  and  _409
REMARK  164  A    between atoms: _408  and  _411
REMARK  165  A    between atoms: _411  and  _412
REMARK  166  A    between atoms: _415  and  _417
REMARK  167  A    between atoms: _417  and  _418
REMARK  168  A    between atoms: _417  and  _420
REMARK  169  A    between atoms: _420  and  _421
REMARK  170  A    between atoms: _424  and  _426
REMARK  171  A    between atoms: _426  and  _427
REMARK  172  A    between atoms: _430  and  _432
REMARK  173  A    between atoms: _432  and  _433
REMARK  174  A    between atoms: _432  and  _435
REMARK  175  A    between atoms: _435  and  _436
REMARK  176  A    between atoms: _439  and  _441
REMARK  177  A    between atoms: _441  and  _442
REMARK  178  A    between atoms: _441  and  _444
REMARK  179  A    between atoms: _444  and  _445
REMARK  180  A    between atoms: _448  and  _450
REMARK  181  A    between atoms: _450  and  _451
REMARK  182  A    between atoms: _450  and  _453
REMARK  183  A    between atoms: _453  and  _454
REMARK  184  A    between atoms: _457  and  _459
REMARK  185  A    between atoms: _459  and  _460
REMARK  186  A    between atoms: _459  and  _462
REMARK  187  A    between atoms: _462  and  _463
REMARK  188  A    between atoms: _463  and  _464
REMARK  189  A    between atoms: _464  and  _465
REMARK  190  A    between atoms: _465  and  _466
REMARK  191  A    between atoms: _470  and  _472
REMARK  192  A    between atoms: _472  and  _473
REMARK  193  A    between atoms: _472  and  _475
REMARK  194  A    between atoms: _475  and  _476
REMARK  195  A    between atoms: _479  and  _481
REMARK  196  A    between atoms: _481  and  _482
REMARK  197  A    between atoms: _481  and  _484
REMARK  198  A    between atoms: _484  and  _485
REMARK  199  A    between atoms: _488  and  _490
REMARK  200  A    between atoms: _490  and  _491
REMARK  201  A    between atoms: _490  and  _493
REMARK  202  A    between atoms: _493  and  _494
REMARK  203  A    between atoms: _498  and  _499
REMARK  204  A    between atoms: _504  and  _506
REMARK  205  A    between atoms: _506  and  _507
REMARK  206  A    between atoms: _506  and  _509
REMARK  207  A    between atoms: _509  and  _510
REMARK  208  A    between atoms: _515  and  _517
REMARK  209  A    between atoms: _517  and  _518
REMARK  210  A    between atoms: _517  and  _520
REMARK  211  A    between atoms: _520  and  _521
REMARK  212  A    between atoms: _521  and  _522
REMARK  213  A    between atoms: _522  and  _523
REMARK  214  A    between atoms: _523  and  _524
REMARK  215  A    between atoms: _528  and  _530
REMARK  216  A    between atoms: _530  and  _531
REMARK  217  A    between atoms: _530  and  _533
REMARK  218  A    between atoms: _533  and  _534
REMARK  219  A    between atoms: _534  and  _535
REMARK  220  A    between atoms: _538  and  _540
REMARK  221  A    between atoms: _540  and  _541
REMARK  222  A    between atoms: _540  and  _543
REMARK  223  A    between atoms: _543  and  _544
REMARK  224  A    between atoms: _547  and  _549
REMARK  225  A    between atoms: _549  and  _550
REMARK  226  A    between atoms: _549  and  _552
REMARK  227  A    between atoms: _552  and  _553
REMARK  228  A    between atoms: _553  and  _554
REMARK  229  A    between atoms: _554  and  _555
REMARK  230  A    between atoms: _564  and  _566
REMARK  231  A    between atoms: _566  and  _567
REMARK  232  A    between atoms: _566  and  _569
REMARK  233  A    between atoms: _569  and  _570
REMARK  234  A    between atoms: _572  and  _574
REMARK  235  A    between atoms: _574  and  _575
REMARK  236  A    between atoms: _574  and  _577
REMARK  237  A    between atoms: _577  and  _578
REMARK  238  A    between atoms: _584  and  _586
REMARK  239  A    between atoms: _586  and  _587
REMARK  240  A    between atoms: _590  and  _592
REMARK  241  A    between atoms: _592  and  _593
REMARK  242  A    between atoms: _592  and  _595
REMARK  243  A    between atoms: _595  and  _596
REMARK  244  A    between atoms: _596  and  _597
REMARK  245  A    between atoms: _600  and  _602
REMARK  246  A    between atoms: _602  and  _603
REMARK  247  A    between atoms: _602  and  _605
REMARK  248  A    between atoms: _605  and  _606
REMARK                            x       y       z     vdW  Elec       q    Type
REMARK                         _______ _______ _______ _____ _____    ______ ____
ROOT
ATOM      1  CA  LEU A   1      -9.501  21.431 -19.818  0.00  0.00    +0.133 C 
ENDROOT
BRANCH   1   2
ATOM      2  N   LEU A   1      -8.921  20.101 -19.716  0.00  0.00    -0.239 NA
ATOM      3  H   LEU A   1      -8.001  19.985 -19.246  0.00  0.00    +0.142 HD
ENDBRANCH   1   2
BRANCH   1   4
ATOM      4  C   LEU A   1      -8.440  22.371 -20.346  0.00  0.00    +0.224 C 
ATOM      5  O   LEU A   1      -7.321  22.423 -19.817  0.00  0.00    -0.287 OA
ENDBRANCH   1   4
BRANCH   1   6
ATOM      6  CB  LEU A   1      -9.977  21.907 -18.446  0.00  0.00    +0.025 C 
BRANCH   6   7
ATOM      7  CG  LEU A   1     -10.589  23.311 -18.386  0.00  0.00    +0.002 C 
ATOM      8  CD2 LEU A   1     -10.748  23.798 -16.927  0.00  0.00    +0.000 C 
ATOM      9  CD1 LEU A   1     -11.927  23.309 -19.115  0.00  0.00    +0.000 C 
ENDBRANCH   6   7
ENDBRANCH   1   6
TORSDOF 4
REMARK  Name = ../refined-set-2016/4pzv/4pzv_pocket.pdb
REMARK  248 active torsions:
REMARK  status: ('A' for Active; 'I' for Inactive)
REMARK    1  A    between atoms: _1  and  _3
REMARK    2  A    between atoms: _3  and  _4
REMARK    3  A    between atoms: _3  and  _6
REMARK    4  A    between atoms: _6  and  _7
REMARK    5  A    between atoms: _10  and  _12
REMARK    6  A    between atoms: _12  and  _13
REMARK    7  A    between atoms: _12  and  _15
REMARK    8  A    between atoms: _15  and  _16
REMARK    9  A    between atoms: _19  and  _21
REMARK   10  A    between atoms: _21  and  _22
REMARK   11  A    between atoms: _24  and  _26
REMARK   12  A    between atoms: _26  and  _27
REMARK   13  A    between atoms: _26  and  _29
REMARK   14  A    between atoms: _29  and  _30
REMARK   15  A    between atoms: _33  and  _35
REMARK   16  A    between atoms: _35  and  _36
REMARK   17  A    between atoms: _38  and  _40
REMARK   18  A    between atoms: _40  and  _41
REMARK   19  A    between atoms: _40  and  _43
REMARK   20  A    between atoms: _43  and  _44
REMARK   21  A    between atoms: _47  and  _49
REMARK   22  A    between atoms: _49  and  _50
REMARK   23  A    between atoms: _49  and  _52
REMARK   24  A    between atoms: _52  and  _53
REMARK   25  A    between atoms: _58  and  _60
REMARK   26  A    between atoms: _60  and  _61
REMARK   27  A    between atoms: _60  and  _63
REMARK   28  A    between atoms: _63  and  _64
REMARK   29  A    between atoms: _69  and  _70
REMARK   30  A    between atoms: _72  and  _74
REMARK   31  A    between atoms: _74  and  _75
REMARK   32  A    between atoms: _74  and  _77
REMARK   33  A    between atoms: _77  and  _78
REMARK   34  A    between atoms: _80  and  _82
REMARK   35  A    between atoms: _82  and  _83
REMARK   36  A    between atoms: _82  and  _85
REMARK   37  A    between atoms: _85  and  _86
REMARK   38  A    between atoms: _88  and  _90
REMARK   39  A    between atoms: _90  and  _91
REMARK   40  A    between atoms: _90  and  _93
REMARK   41  A    between atoms: _93  and  _94
REMARK   42  A    between atoms: _94  and  _95
REMARK   43  A    between atoms: _95  and  _96
REMARK   44  A    between atoms: _96  and  _97
REMARK   45  A    between atoms: _101  and  _103
REMARK   46  A    between atoms: _103  and  _104
REMARK   47  A    between atoms: _107  and  _109
REMARK   48  A    between atoms: _109  and  _110
REMARK   49  A    between atoms: _109  and  _112
REMARK   50  A    between atoms: _115  and  _117
REMARK   51  A    between atoms: _117  and  _118
REMARK   52  A    between atoms: _117  and  _120
REMARK   53  A    between atoms: _120  and  _121
REMARK   54  A    between atoms: _124  and  _126
REMARK   55  A    between atoms: _126  and  _127
REMARK   56  A    between atoms: _126  and  _129
REMARK   57  A    between atoms: _129  and  _130
REMARK   58  A    between atoms: _130  and  _131
REMARK   59  A    between atoms: _131  and  _132
REMARK   60  A    between atoms: _132  and  _133
REMARK   61  A    between atoms: _137  and  _139
REMARK   62  A    between atoms: _139  and  _140
REMARK   63  A    between atoms: _139  and  _142
REMARK   64  A    between atoms: _142  and  _143
REMARK   65  A    between atoms: _153  and  _155
REMARK   66  A    between atoms: _155  and  _156
REMARK   67  A    between atoms: _155  and  _158
REMARK   68  A    between atoms: _158  and  _159
REMARK   69  A    between atoms: _162  and  _164
REMARK   70  A    between atoms: _164  and  _165
REMARK   71  A    between atoms: _164  and  _167
REMARK   72  A    between atoms: _167  and  _168
REMARK   73  A    between atoms: _168  and  _169
REMARK   74  A    between atoms: _169  and  _170
REMARK   75  A    between atoms: _179  and  _181
REMARK   76  A    between atoms: _181  and  _182
REMARK   77  A    between atoms: _181  and  _184
REMARK   78  A    between atoms: _184  and  _185
REMARK   79  A    between atoms: _191  and  _193
REMARK   80  A    between atoms: _193  and  _194
REMARK   81  A    between atoms: _193  and  _196
REMARK   82  A    between atoms: _196  and  _197
REMARK   83  A    between atoms: _200  and  _202
REMARK   84  A    between atoms: _202  and  _203
REMARK   85  A    between atoms: _202  and  _205
REMARK   86  A    between atoms: _205  and  _206
REMARK   87  A    between atoms: _211  and  _213
REMARK   88  A    between atoms: _213  and  _214
REMARK   89  A    between atoms: _213  and  _216
REMARK   90  A    between atoms: _216  and  _217
REMARK   91  A    between atoms: _221  and  _222
REMARK   92  A    between atoms: _227  and  _229
REMARK   93  A    between atoms: _229  and  _230
REMARK   94  A    between atoms: _229  and  _232
REMARK   95  A    between atoms: _232  and  _233
REMARK   96  A    between atoms: _236  and  _238
REMARK   97  A    between atoms: _238  and  _239
REMARK   98  A    between atoms: _238  and  _241
REMARK   99  A    between atoms: _241  and  _242
REMARK  100  A    between atoms: _245  and  _247
REMARK  101  A    between atoms: _247  and  _248
REMARK  102  A    between atoms: _247  and  _250
REMARK  103  A    between atoms: _250  and  _251
REMARK  104  A    between atoms: _254  and  _256
REMARK  105  A    between atoms: _256  and  _257
REMARK  106  A    between atoms: _256  and  _259
REMARK  107  A    between atoms: _259  and  _260
REMARK  108  A    between atoms: _260  and  _261
REMARK  109  A    between atoms: _261  and  _262
REMARK  110  A    between atoms: _262  and  _263
REMARK  111  A    between atoms: _267  and  _269
REMARK  112  A    between atoms: _269  and  _270
REMARK  113  A    between atoms: _269  and  _272
REMARK  114  A    between atoms: _272  and  _273
REMARK  115  A    between atoms: _273  and  _274
REMARK  116  A    between atoms: _277  and  _279
REMARK  117  A    between atoms: _279  and  _280
REMARK  118  A    between atoms: _279  and  _282
REMARK  119  A    between atoms: _282  and  _283
REMARK  120  A    between atoms: _283  and  _284
REMARK  121  A    between atoms: _284  and  _285
REMARK  122  A    between atoms: _294  and  _296
REMARK  123  A    between atoms: _296  and  _297
REMARK  124  A    between atoms: _296  and  _299
REMARK  125  A    between atoms: _299  and  _300
REMARK  126  A    between atoms: _303  and  _305
REMARK  127  A    between atoms: _305  and  _306
REMARK  128  A    between atoms: _310  and  _311
REMARK  129  A    between atoms: _316  and  _318
REMARK  130  A    between atoms: _318  and  _319
REMARK  131  A    between atoms: _322  and  _324
REMARK  132  A    between atoms: _324  and  _325
REMARK  133  A    between atoms: _324  and  _327
REMARK  134  A    between atoms: _327  and  _328
REMARK  135  A    between atoms: _338  and  _340
REMARK  136  A    between atoms: _340  and  _341
REMARK  137  A    between atoms: _340  and  _343
REMARK  138  A    between atoms: _343  and  _344
REMARK  139  A    between atoms: _347  and  _348
REMARK  140  A    between atoms: _353  and  _355
REMARK  141  A    between atoms: _355  and  _356
REMARK  142  A    between atoms: _355  and  _358
REMARK  143  A    between atoms: _358  and  _359
REMARK  144  A    between atoms: _359  and  _360
REMARK  145  A    between atoms: _360  and  _361
REMARK  146  A    between atoms: _370  and  _372
REMARK  147  A    between atoms: _372  and  _373
REMARK  148  A    between atoms: _372  and  _375
REMARK  149  A    between atoms: _375  and  _376
REMARK  150  A    between atoms: _379  and  _381
REMARK  151  A    between atoms: _381  and  _382
REMARK  152  A    between atoms: _381  and  _384
REMARK  153  A    between atoms: _384  and  _385
REMARK  154  A    between atoms: _388  and  _390
REMARK  155  A    between atoms: _390  and  _391
REMARK  156  A    between atoms: _390  and  _393
REMARK  157  A    between atoms: _393  and  _394
REMARK  158  A    between atoms: _397  and  _399
REMARK  159  A    between atoms: _399  and  _400
REMARK  160  A    between atoms: _399  and  _402
REMARK  161  A    between atoms: _402  and  _403
REMARK  162  A    between atoms: _406  and  _408
REMARK  163  A    between atoms: _408  and  _409
REMARK  164  A    between atoms: _408  and  _411
REMARK  165  A    between atoms: _411  and  _412
REMARK  166  A    between atoms: _415  and  _417
REMARK  167  A    between atoms: _417  and  _418
REMARK  168  A    between atoms: _417  and  _420
REMARK  169  A    between atoms: _420  and  _421
REMARK  170  A    between atoms: _424  and  _426
REMARK  171  A    between atoms: _426  and  _427
REMARK  172  A    between atoms: _430  and  _432
REMARK  173  A    between atoms: _432  and  _433
REMARK  174  A    between atoms: _432  and  _435
REMARK  175  A    between atoms: _435  and  _436
REMARK  176  A    between atoms: _439  and  _441
REMARK  177  A    between atoms: _441  and  _442
REMARK  178  A    between atoms: _441  and  _444
REMARK  179  A    between atoms: _444  and  _445
REMARK  180  A    between atoms: _448  and  _450
REMARK  181  A    between atoms: _450  and  _451
REMARK  182  A    between atoms: _450  and  _453
REMARK  183  A    between atoms: _453  and  _454
REMARK  184  A    between atoms: _457  and  _459
REMARK  185  A    between atoms: _459  and  _460
REMARK  186  A    between atoms: _459  and  _462
REMARK  187  A    between atoms: _462  and  _463
REMARK  188  A    between atoms: _463  and  _464
REMARK  189  A    between atoms: _464  and  _465
REMARK  190  A    between atoms: _465  and  _466
REMARK  191  A    between atoms: _470  and  _472
REMARK  192  A    between atoms: _472  and  _473
REMARK  193  A    between atoms: _472  and  _475
REMARK  194  A    between atoms: _475  and  _476
REMARK  195  A    between atoms: _479  and  _481
REMARK  196  A    between atoms: _481  and  _482
REMARK  197  A    between atoms: _481  and  _484
REMARK  198  A    between atoms: _484  and  _485
REMARK  199  A    between atoms: _488  and  _490
REMARK  200  A    between atoms: _490  and  _491
REMARK  201  A    between atoms: _490  and  _493
REMARK  202  A    between atoms: _493  and  _494
REMARK  203  A    between atoms: _498  and  _499
REMARK  204  A    between atoms: _504  and  _506
REMARK  205  A    between atoms: _506  and  _507
REMARK  206  A    between atoms: _506  and  _509
REMARK  207  A    between atoms: _509  and  _510
REMARK  208  A    between atoms: _515  and  _517
REMARK  209  A    between atoms: _517  and  _518
REMARK  210  A    between atoms: _517  and  _520
REMARK  211  A    between atoms: _520  and  _521
REMARK  212  A    between atoms: _521  and  _522
REMARK  213  A    between atoms: _522  and  _523
REMARK  214  A    between atoms: _523  and  _524
REMARK  215  A    between atoms: _528  and  _530
REMARK  216  A    between atoms: _530  and  _531
REMARK  217  A    between atoms: _530  and  _533
REMARK  218  A    between atoms: _533  and  _534
REMARK  219  A    between atoms: _534  and  _535
REMARK  220  A    between atoms: _538  and  _540
REMARK  221  A    between atoms: _540  and  _541
REMARK  222  A    between atoms: _540  and  _543
REMARK  223  A    between atoms: _543  and  _544
REMARK  224  A    between atoms: _547  and  _549
REMARK  225  A    between atoms: _549  and  _550
REMARK  226  A    between atoms: _549  and  _552
REMARK  227  A    between atoms: _552  and  _553
REMARK  228  A    between atoms: _553  and  _554
REMARK  229  A    between atoms: _554  and  _555
REMARK  230  A    between atoms: _564  and  _566
REMARK  231  A    between atoms: _566  and  _567
REMARK  232  A    between atoms: _566  and  _569
REMARK  233  A    between atoms: _569  and  _570
REMARK  234  A    between atoms: _572  and  _574
REMARK  235  A    between atoms: _574  and  _575
REMARK  236  A    between atoms: _574  and  _577
REMARK  237  A    between atoms: _577  and  _578
REMARK  238  A    between atoms: _584  and  _586
REMARK  239  A    between atoms: _586  and  _587
REMARK  240  A    between atoms: _590  and  _592
REMARK  241  A    between atoms: _592  and  _593
REMARK  242  A    between atoms: _592  and  _595
REMARK  243  A    between atoms: _595  and  _596
REMARK  244  A    between atoms: _596  and  _597
REMARK  245  A    between atoms: _600  and  _602
REMARK  246  A    between atoms: _602  and  _603
REMARK  247  A    between atoms: _602  and  _605
REMARK  248  A    between atoms: _605  and  _606
REMARK                            x       y       z     vdW  Elec       q    Type
REMARK                         _______ _______ _______ _____ _____    ______ ____
ROOT
ATOM      1  CA  ILE A   6      -5.749  20.859 -16.677  0.00  0.00    +0.149 C 
ENDROOT
BRANCH   1   2
ATOM      2  C   ILE A   6      -5.668  19.646 -17.602  0.00  0.00    +0.244 C 
ATOM      3  N   PRO A   7      -4.710  18.741 -17.349  0.00  0.00    -0.272 N 
ATOM      4  CA  PRO A   7      -3.705  18.877 -16.284  0.00  0.00    +0.152 C 
ATOM      5  CB  PRO A   7      -2.867  17.602 -16.417  0.00  0.00    +0.031 C 
ATOM      6  CG  PRO A   7      -3.745  16.647 -17.186  0.00  0.00    +0.024 C 
ATOM      7  CD  PRO A   7      -4.555  17.487 -18.100  0.00  0.00    +0.094 C 
ATOM      8  O   ILE A   6      -6.458  19.526 -18.540  0.00  0.00    -0.273 OA
BRANCH   4   9
ATOM      9  C   PRO A   7      -2.839  20.111 -16.495  0.00  0.00    +0.241 C 
ATOM     10  N   HIS A   8      -2.183  20.553 -15.426  0.00  0.00    -0.297 N 
ATOM     11  H   HIS A   8      -2.304  20.061 -14.518  0.00  0.00    +0.150 HD
ATOM     12  O   PRO A   7      -2.800  20.667 -17.593  0.00  0.00    -0.273 OA
BRANCH  10  13
ATOM     13  CA  HIS A   8      -1.306  21.701 -15.494  0.00  0.00    +0.155 C 
BRANCH  13  14
ATOM     14  C   HIS A   8      -0.285  21.487 -16.583  0.00  0.00    +0.241 C 
ATOM     15  O   HIS A   8       0.260  20.398 -16.740  0.00  0.00    -0.273 OA
ATOM     16  N   LYS A   9      -0.054  22.545 -17.343  0.00  0.00    -0.297 N 
ATOM     17  H   LYS A   9      -0.451  23.462 -17.055  0.00  0.00    +0.150 HD
BRANCH  16  18
ATOM     18  CA  LYS A   9       0.736  22.478 -18.569  0.00  0.00    +0.149 C 
BRANCH  18  19
ATOM     19  C   LYS A   9       2.100  21.806 -18.386  0.00  0.00    +0.241 C 
ATOM     20  N   GLU A  10       2.696  22.039 -17.216  0.00  0.00    -0.297 N 
ATOM     21  H   GLU A  10       2.155  22.507 -16.461  0.00  0.00    +0.150 HD
ATOM     22  O   LYS A   9       2.597  21.094 -19.268  0.00  0.00    -0.273 OA
BRANCH  20  23
ATOM     23  CA  GLU A  10       4.088  21.657 -16.959  0.00  0.00    +0.149 C 
BRANCH  23  24
ATOM     24  C   GLU A  10       4.208  20.423 -16.079  0.00  0.00    +0.241 C 
ATOM     25  N   LEU A  11       3.071  19.825 -15.734  0.00  0.00    -0.298 N 
ATOM     26  H   LEU A  11       2.168  20.199 -16.088  0.00  0.00    +0.150 HD
ATOM     27  O   GLU A  10       5.315  20.007 -15.749  0.00  0.00    -0.273 OA
BRANCH  25  28
ATOM     28  CA  LEU A  11       3.071  18.661 -14.873  0.00  0.00    +0.137 C 
BRANCH  28  29
ATOM     29  C   LEU A  11       4.125  17.658 -15.325  0.00  0.00    +0.227 C 
ATOM     30  O   LEU A  11       4.941  17.207 -14.514  0.00  0.00    -0.286 OA
ENDBRANCH  28  29
BRANCH  28  31
ATOM     31  CB  LEU A  11       1.686  18.011 -14.816  0.00  0.00    +0.028 C 
BRANCH  31  32
ATOM     32  CG  LEU A  11       1.661  16.724 -14.000  0.00  0.00    +0.002 C 
ATOM     33  CD2 LEU A  11       2.047  17.011 -12.543  0.00  0.00    +0.000 C 
ATOM     34  CD1 LEU A  11       0.305  16.050 -14.094  0.00  0.00    +0.000 C 
ENDBRANCH  31  32
ENDBRANCH  28  31
ENDBRANCH  25  28
ENDBRANCH  23  24
BRANCH  23  35
ATOM     35  CB  GLU A  10       4.852  22.804 -16.290  0.00  0.00    +0.041 C 
BRANCH  35  36
ATOM     36  CG  GLU A  10       5.009  24.045 -17.153  0.00  0.00    +0.116 C 
BRANCH  36  37
ATOM     37  CD  GLU A  10       5.710  23.751 -18.475  0.00  0.00    +0.365 C 
ATOM     38  OE2 GLU A  10       6.481  22.773 -18.547  0.00  0.00    -0.246 OA
ATOM     39  OE1 GLU A  10       5.490  24.497 -19.452  0.00  0.00    -0.246 OA
ENDBRANCH  36  37
ENDBRANCH  35  36
ENDBRANCH  23  35
ENDBRANCH  20  23
ENDBRANCH  18  19
BRANCH  18  40
ATOM     40  CB  LYS A   9       0.988  23.870 -19.178  0.00  0.00    +0.029 C 
BRANCH  40  41
ATOM     41  CG  LYS A   9      -0.192  24.567 -19.770  0.00  0.00    +0.000 C 
BRANCH  41  42
ATOM     42  CD  LYS A   9       0.284  25.921 -20.361  0.00  0.00    -0.024 C 
BRANCH  42  43
ATOM     43  CE  LYS A   9       1.121  25.758 -21.639  0.00  0.00    -0.086 C 
BRANCH  43  44
ATOM     44  NZ  LYS A   9       0.354  25.148 -22.759  0.00  0.00    +0.380 N 
ATOM     45  HZ1 LYS A   9       0.020  24.205 -22.476  0.00  0.00    -0.089 HD
ATOM     46  HZ2 LYS A   9      -0.461  25.751 -22.988  0.00  0.00    -0.089 HD
ATOM     47  HZ3 LYS A   9       0.969  25.063 -23.593  0.00  0.00    -0.089 HD
ENDBRANCH  43  44
ENDBRANCH  42  43
ENDBRANCH  41  42
ENDBRANCH  40  41
ENDBRANCH  18  40
ENDBRANCH  16  18
ENDBRANCH  13  14
BRANCH  13  48
ATOM     48  CB  HIS A   8      -0.596  21.876 -14.167  0.00  0.00    +0.076 C 
BRANCH  48  49
ATOM     49  CG  HIS A   8       0.145  23.165 -14.049  0.00  0.00    +0.082 A 
ATOM     50  CD2 HIS A   8      -0.116  24.277 -13.324  0.00  0.00    +0.115 A 
ATOM     51  NE2 HIS A   8       0.895  25.171 -13.573  0.00  0.00    -0.221 NA
ATOM     52  CE1 HIS A   8       1.749  24.628 -14.421  0.00  0.00    +0.199 A 
ATOM     53  ND1 HIS A   8       1.322  23.411 -14.716  0.00  0.00    -0.227 NA
ENDBRANCH  48  49
ENDBRANCH  13  48
ENDBRANCH  10  13
ENDBRANCH   4   9
ENDBRANCH   1   2
BRANCH   1  56
ATOM     54  C   THR A   5      -5.098  23.152 -17.240  0.00  0.00    +0.243 C 
ATOM     55  O   THR A   5      -4.257  23.218 -16.335  0.00  0.00    -0.273 OA
ATOM     56  N   ILE A   6      -5.838  22.074 -17.477  0.00  0.00    -0.297 N 
ATOM     57  H   ILE A   6      -6.511  22.098 -18.269  0.00  0.00    +0.150 HD
BRANCH  54  58
ATOM     58  CA  THR A   5      -5.328  24.333 -18.174  0.00  0.00    +0.176 C 
BRANCH  58  60
ATOM     59  C   LEU A   4      -6.715  26.239 -17.583  0.00  0.00    +0.241 C 
ATOM     60  N   THR A   5      -5.620  25.507 -17.373  0.00  0.00    -0.295 N 
ATOM     61  H   THR A   5      -4.961  25.784 -16.618  0.00  0.00    +0.150 HD
ATOM     62  O   LEU A   4      -7.480  26.039 -18.534  0.00  0.00    -0.273 OA
BRANCH  59  63
ATOM     63  CA  LEU A   4      -6.957  27.394 -16.602  0.00  0.00    +0.149 C 
BRANCH  63  66
ATOM     64  C   LYS A   3      -6.762  29.807 -16.771  0.00  0.00    +0.241 C 
ATOM     65  O   LYS A   3      -6.179  29.885 -15.682  0.00  0.00    -0.273 OA
ATOM     66  N   LEU A   4      -7.134  28.656 -17.306  0.00  0.00    -0.297 N 
ATOM     67  H   LEU A   4      -7.564  28.652 -18.253  0.00  0.00    +0.150 HD
BRANCH  64  68
ATOM     68  CA  LYS A   3      -7.100  31.068 -17.581  0.00  0.00    +0.149 C 
BRANCH  68  70
ATOM     69  C   ASP A   2      -6.107  30.814 -19.772  0.00  0.00    +0.241 C 
ATOM     70  N   LYS A   3      -7.185  30.800 -19.002  0.00  0.00    -0.297 N 
ATOM     71  H   LYS A   3      -8.111  30.592 -19.427  0.00  0.00    +0.150 HD
ATOM     72  O   ASP A   2      -4.966  30.933 -19.331  0.00  0.00    -0.273 OA
BRANCH  69  73
ATOM     73  CA  ASP A   2      -6.354  30.692 -21.257  0.00  0.00    +0.160 C 
BRANCH  73  76
ATOM     74  C   THR A   1      -7.406  28.514 -21.126  0.00  0.00    +0.241 C 
ATOM     75  O   THR A   1      -6.444  28.044 -20.516  0.00  0.00    -0.274 OA
ATOM     76  N   ASP A   2      -7.453  29.778 -21.525  0.00  0.00    -0.297 N 
ATOM     77  H   ASP A   2      -8.290  30.121 -22.038  0.00  0.00    +0.150 HD
BRANCH  74  78
ATOM     78  CA  THR A   1      -8.611  27.647 -21.479  0.00  0.00    +0.172 C 
BRANCH  78  79
ATOM     79  N   THR A   1      -8.242  26.244 -21.357  0.00  0.00    -0.236 NA
ATOM     80  H   THR A   1      -7.848  25.916 -20.452  0.00  0.00    +0.142 HD
ENDBRANCH  78  79
BRANCH  78  81
ATOM     81  CB  THR A   1      -9.776  27.998 -20.539  0.00  0.00    +0.135 C 
ATOM     82  CG2 THR A   1     -10.984  27.126 -20.853  0.00  0.00    +0.034 C 
BRANCH  81  83
ATOM     83  OG1 THR A   1      -9.379  27.803 -19.165  0.00  0.00    -0.383 OA
ATOM     84  HG1 THR A   1     -10.135  28.032 -18.569  0.00  0.00    +0.210 HD
ENDBRANCH  81  83
ENDBRANCH  78  81
ENDBRANCH  74  78
ENDBRANCH  73  76
BRANCH  73  85
ATOM     85  CB  ASP A   2      -6.650  32.085 -21.817  0.00  0.00    +0.143 C 
BRANCH  85  86
ATOM     86  CG  ASP A   2      -6.563  32.127 -23.330  0.00  0.00    +0.367 C 
ATOM     87  OD2 ASP A   2      -5.448  32.396 -23.847  0.00  0.00    -0.246 OA
ATOM     88  OD1 ASP A   2      -7.598  31.863 -23.994  0.00  0.00    -0.246 OA
ENDBRANCH  85  86
ENDBRANCH  73  85
ENDBRANCH  69  73
ENDBRANCH  68  70
BRANCH  68  89
ATOM     89  CB  LYS A   3      -8.431  31.647 -17.113  0.00  0.00    +0.029 C 
BRANCH  89  90
ATOM     90  CG  LYS A   3      -8.413  32.157 -15.706  0.00  0.00    +0.000 C 
BRANCH  90  91
ATOM     91  CD  LYS A   3      -9.803  32.525 -15.225  0.00  0.00    -0.024 C 
BRANCH  91  92
ATOM     92  CE  LYS A   3     -10.705  31.295 -15.100  0.00  0.00    -0.086 C 
BRANCH  92  93
ATOM     93  NZ  LYS A   3     -11.970  31.650 -14.382  0.00  0.00    +0.380 N 
ATOM     94  HZ1 LYS A   3     -11.740  32.002 -13.431  0.00  0.00    -0.089 HD
ATOM     95  HZ2 LYS A   3     -12.572  30.805 -14.305  0.00  0.00    -0.089 HD
ATOM     96  HZ3 LYS A   3     -12.473  32.389 -14.914  0.00  0.00    -0.089 HD
ENDBRANCH  92  93
ENDBRANCH  91  92
ENDBRANCH  90  91
ENDBRANCH  89  90
ENDBRANCH  68  89
ENDBRANCH  64  68
ENDBRANCH  63  66
BRANCH  63  97
ATOM     97  CB  LEU A   4      -8.178  27.133 -15.725  0.00  0.00    +0.029 C 
BRANCH  97  98
ATOM     98  CG  LEU A   4      -8.216  25.849 -14.889  0.00  0.00    +0.002 C 
ATOM     99  CD2 LEU A   4      -9.453  25.837 -13.991  0.00  0.00    +0.000 C 
ATOM    100  CD1 LEU A   4      -6.940  25.651 -14.073  0.00  0.00    +0.000 C 
ENDBRANCH  97  98
ENDBRANCH  63  97
ENDBRANCH  59  63
ENDBRANCH  58  60
BRANCH  58 101
ATOM    101  CB  THR A   5      -4.080  24.532 -19.064  0.00  0.00    +0.137 C 
ATOM    102  CG2 THR A   5      -3.781  23.254 -19.846  0.00  0.00    +0.034 C 
BRANCH 101 103
ATOM    103  OG1 THR A   5      -4.293  25.631 -19.977  0.00  0.00    -0.382 OA
ATOM    104  HG1 THR A   5      -4.461  26.459 -19.461  0.00  0.00    +0.210 HD
ENDBRANCH 101 103
ENDBRANCH  58 101
ENDBRANCH  54  58
ENDBRANCH   1  56
BRANCH   1 105
ATOM    105  CB  ILE A   6      -6.989  20.696 -15.792  0.00  0.00    +0.027 C 
ATOM    106  CG2 ILE A   6      -6.915  19.401 -14.972  0.00  0.00    +0.002 C 
BRANCH 105 107
ATOM    107  CG1 ILE A   6      -7.172  21.924 -14.903  0.00  0.00    +0.002 C 
ATOM    108  CD1 ILE A   6      -8.488  21.958 -14.177  0.00  0.00    +0.000 C 
ENDBRANCH 105 107
ENDBRANCH   1 105
TORSDOF 48
REMARK  Name = ../refined-set-2016/4pzv/4pzv_pocket.pdb
REMARK  248 active torsions:
REMARK  status: ('A' for Active; 'I' for Inactive)
REMARK    1  A    between atoms: _1  and  _3
REMARK    2  A    between atoms: _3  and  _4
REMARK    3  A    between atoms: _3  and  _6
REMARK    4  A    between atoms: _6  and  _7
REMARK    5  A    between atoms: _10  and  _12
REMARK    6  A    between atoms: _12  and  _13
REMARK    7  A    between atoms: _12  and  _15
REMARK    8  A    between atoms: _15  and  _16
REMARK    9  A    between atoms: _19  and  _21
REMARK   10  A    between atoms: _21  and  _22
REMARK   11  A    between atoms: _24  and  _26
REMARK   12  A    between atoms: _26  and  _27
REMARK   13  A    between atoms: _26  and  _29
REMARK   14  A    between atoms: _29  and  _30
REMARK   15  A    between atoms: _33  and  _35
REMARK   16  A    between atoms: _35  and  _36
REMARK   17  A    between atoms: _38  and  _40
REMARK   18  A    between atoms: _40  and  _41
REMARK   19  A    between atoms: _40  and  _43
REMARK   20  A    between atoms: _43  and  _44
REMARK   21  A    between atoms: _47  and  _49
REMARK   22  A    between atoms: _49  and  _50
REMARK   23  A    between atoms: _49  and  _52
REMARK   24  A    between atoms: _52  and  _53
REMARK   25  A    between atoms: _58  and  _60
REMARK   26  A    between atoms: _60  and  _61
REMARK   27  A    between atoms: _60  and  _63
REMARK   28  A    between atoms: _63  and  _64
REMARK   29  A    between atoms: _69  and  _70
REMARK   30  A    between atoms: _72  and  _74
REMARK   31  A    between atoms: _74  and  _75
REMARK   32  A    between atoms: _74  and  _77
REMARK   33  A    between atoms: _77  and  _78
REMARK   34  A    between atoms: _80  and  _82
REMARK   35  A    between atoms: _82  and  _83
REMARK   36  A    between atoms: _82  and  _85
REMARK   37  A    between atoms: _85  and  _86
REMARK   38  A    between atoms: _88  and  _90
REMARK   39  A    between atoms: _90  and  _91
REMARK   40  A    between atoms: _90  and  _93
REMARK   41  A    between atoms: _93  and  _94
REMARK   42  A    between atoms: _94  and  _95
REMARK   43  A    between atoms: _95  and  _96
REMARK   44  A    between atoms: _96  and  _97
REMARK   45  A    between atoms: _101  and  _103
REMARK   46  A    between atoms: _103  and  _104
REMARK   47  A    between atoms: _107  and  _109
REMARK   48  A    between atoms: _109  and  _110
REMARK   49  A    between atoms: _109  and  _112
REMARK   50  A    between atoms: _115  and  _117
REMARK   51  A    between atoms: _117  and  _118
REMARK   52  A    between atoms: _117  and  _120
REMARK   53  A    between atoms: _120  and  _121
REMARK   54  A    between atoms: _124  and  _126
REMARK   55  A    between atoms: _126  and  _127
REMARK   56  A    between atoms: _126  and  _129
REMARK   57  A    between atoms: _129  and  _130
REMARK   58  A    between atoms: _130  and  _131
REMARK   59  A    between atoms: _131  and  _132
REMARK   60  A    between atoms: _132  and  _133
REMARK   61  A    between atoms: _137  and  _139
REMARK   62  A    between atoms: _139  and  _140
REMARK   63  A    between atoms: _139  and  _142
REMARK   64  A    between atoms: _142  and  _143
REMARK   65  A    between atoms: _153  and  _155
REMARK   66  A    between atoms: _155  and  _156
REMARK   67  A    between atoms: _155  and  _158
REMARK   68  A    between atoms: _158  and  _159
REMARK   69  A    between atoms: _162  and  _164
REMARK   70  A    between atoms: _164  and  _165
REMARK   71  A    between atoms: _164  and  _167
REMARK   72  A    between atoms: _167  and  _168
REMARK   73  A    between atoms: _168  and  _169
REMARK   74  A    between atoms: _169  and  _170
REMARK   75  A    between atoms: _179  and  _181
REMARK   76  A    between atoms: _181  and  _182
REMARK   77  A    between atoms: _181  and  _184
REMARK   78  A    between atoms: _184  and  _185
REMARK   79  A    between atoms: _191  and  _193
REMARK   80  A    between atoms: _193  and  _194
REMARK   81  A    between atoms: _193  and  _196
REMARK   82  A    between atoms: _196  and  _197
REMARK   83  A    between atoms: _200  and  _202
REMARK   84  A    between atoms: _202  and  _203
REMARK   85  A    between atoms: _202  and  _205
REMARK   86  A    between atoms: _205  and  _206
REMARK   87  A    between atoms: _211  and  _213
REMARK   88  A    between atoms: _213  and  _214
REMARK   89  A    between atoms: _213  and  _216
REMARK   90  A    between atoms: _216  and  _217
REMARK   91  A    between atoms: _221  and  _222
REMARK   92  A    between atoms: _227  and  _229
REMARK   93  A    between atoms: _229  and  _230
REMARK   94  A    between atoms: _229  and  _232
REMARK   95  A    between atoms: _232  and  _233
REMARK   96  A    between atoms: _236  and  _238
REMARK   97  A    between atoms: _238  and  _239
REMARK   98  A    between atoms: _238  and  _241
REMARK   99  A    between atoms: _241  and  _242
REMARK  100  A    between atoms: _245  and  _247
REMARK  101  A    between atoms: _247  and  _248
REMARK  102  A    between atoms: _247  and  _250
REMARK  103  A    between atoms: _250  and  _251
REMARK  104  A    between atoms: _254  and  _256
REMARK  105  A    between atoms: _256  and  _257
REMARK  106  A    between atoms: _256  and  _259
REMARK  107  A    between atoms: _259  and  _260
REMARK  108  A    between atoms: _260  and  _261
REMARK  109  A    between atoms: _261  and  _262
REMARK  110  A    between atoms: _262  and  _263
REMARK  111  A    between atoms: _267  and  _269
REMARK  112  A    between atoms: _269  and  _270
REMARK  113  A    between atoms: _269  and  _272
REMARK  114  A    between atoms: _272  and  _273
REMARK  115  A    between atoms: _273  and  _274
REMARK  116  A    between atoms: _277  and  _279
REMARK  117  A    between atoms: _279  and  _280
REMARK  118  A    between atoms: _279  and  _282
REMARK  119  A    between atoms: _282  and  _283
REMARK  120  A    between atoms: _283  and  _284
REMARK  121  A    between atoms: _284  and  _285
REMARK  122  A    between atoms: _294  and  _296
REMARK  123  A    between atoms: _296  and  _297
REMARK  124  A    between atoms: _296  and  _299
REMARK  125  A    between atoms: _299  and  _300
REMARK  126  A    between atoms: _303  and  _305
REMARK  127  A    between atoms: _305  and  _306
REMARK  128  A    between atoms: _310  and  _311
REMARK  129  A    between atoms: _316  and  _318
REMARK  130  A    between atoms: _318  and  _319
REMARK  131  A    between atoms: _322  and  _324
REMARK  132  A    between atoms: _324  and  _325
REMARK  133  A    between atoms: _324  and  _327
REMARK  134  A    between atoms: _327  and  _328
REMARK  135  A    between atoms: _338  and  _340
REMARK  136  A    between atoms: _340  and  _341
REMARK  137  A    between atoms: _340  and  _343
REMARK  138  A    between atoms: _343  and  _344
REMARK  139  A    between atoms: _347  and  _348
REMARK  140  A    between atoms: _353  and  _355
REMARK  141  A    between atoms: _355  and  _356
REMARK  142  A    between atoms: _355  and  _358
REMARK  143  A    between atoms: _358  and  _359
REMARK  144  A    between atoms: _359  and  _360
REMARK  145  A    between atoms: _360  and  _361
REMARK  146  A    between atoms: _370  and  _372
REMARK  147  A    between atoms: _372  and  _373
REMARK  148  A    between atoms: _372  and  _375
REMARK  149  A    between atoms: _375  and  _376
REMARK  150  A    between atoms: _379  and  _381
REMARK  151  A    between atoms: _381  and  _382
REMARK  152  A    between atoms: _381  and  _384
REMARK  153  A    between atoms: _384  and  _385
REMARK  154  A    between atoms: _388  and  _390
REMARK  155  A    between atoms: _390  and  _391
REMARK  156  A    between atoms: _390  and  _393
REMARK  157  A    between atoms: _393  and  _394
REMARK  158  A    between atoms: _397  and  _399
REMARK  159  A    between atoms: _399  and  _400
REMARK  160  A    between atoms: _399  and  _402
REMARK  161  A    between atoms: _402  and  _403
REMARK  162  A    between atoms: _406  and  _408
REMARK  163  A    between atoms: _408  and  _409
REMARK  164  A    between atoms: _408  and  _411
REMARK  165  A    between atoms: _411  and  _412
REMARK  166  A    between atoms: _415  and  _417
REMARK  167  A    between atoms: _417  and  _418
REMARK  168  A    between atoms: _417  and  _420
REMARK  169  A    between atoms: _420  and  _421
REMARK  170  A    between atoms: _424  and  _426
REMARK  171  A    between atoms: _426  and  _427
REMARK  172  A    between atoms: _430  and  _432
REMARK  173  A    between atoms: _432  and  _433
REMARK  174  A    between atoms: _432  and  _435
REMARK  175  A    between atoms: _435  and  _436
REMARK  176  A    between atoms: _439  and  _441
REMARK  177  A    between atoms: _441  and  _442
REMARK  178  A    between atoms: _441  and  _444
REMARK  179  A    between atoms: _444  and  _445
REMARK  180  A    between atoms: _448  and  _450
REMARK  181  A    between atoms: _450  and  _451
REMARK  182  A    between atoms: _450  and  _453
REMARK  183  A    between atoms: _453  and  _454
REMARK  184  A    between atoms: _457  and  _459
REMARK  185  A    between atoms: _459  and  _460
REMARK  186  A    between atoms: _459  and  _462
REMARK  187  A    between atoms: _462  and  _463
REMARK  188  A    between atoms: _463  and  _464
REMARK  189  A    between atoms: _464  and  _465
REMARK  190  A    between atoms: _465  and  _466
REMARK  191  A    between atoms: _470  and  _472
REMARK  192  A    between atoms: _472  and  _473
REMARK  193  A    between atoms: _472  and  _475
REMARK  194  A    between atoms: _475  and  _476
REMARK  195  A    between atoms: _479  and  _481
REMARK  196  A    between atoms: _481  and  _482
REMARK  197  A    between atoms: _481  and  _484
REMARK  198  A    between atoms: _484  and  _485
REMARK  199  A    between atoms: _488  and  _490
REMARK  200  A    between atoms: _490  and  _491
REMARK  201  A    between atoms: _490  and  _493
REMARK  202  A    between atoms: _493  and  _494
REMARK  203  A    between atoms: _498  and  _499
REMARK  204  A    between atoms: _504  and  _506
REMARK  205  A    between atoms: _506  and  _507
REMARK  206  A    between atoms: _506  and  _509
REMARK  207  A    between atoms: _509  and  _510
REMARK  208  A    between atoms: _515  and  _517
REMARK  209  A    between atoms: _517  and  _518
REMARK  210  A    between atoms: _517  and  _520
REMARK  211  A    between atoms: _520  and  _521
REMARK  212  A    between atoms: _521  and  _522
REMARK  213  A    between atoms: _522  and  _523
REMARK  214  A    between atoms: _523  and  _524
REMARK  215  A    between atoms: _528  and  _530
REMARK  216  A    between atoms: _530  and  _531
REMARK  217  A    between atoms: _530  and  _533
REMARK  218  A    between atoms: _533  and  _534
REMARK  219  A    between atoms: _534  and  _535
REMARK  220  A    between atoms: _538  and  _540
REMARK  221  A    between atoms: _540  and  _541
REMARK  222  A    between atoms: _540  and  _543
REMARK  223  A    between atoms: _543  and  _544
REMARK  224  A    between atoms: _547  and  _549
REMARK  225  A    between atoms: _549  and  _550
REMARK  226  A    between atoms: _549  and  _552
REMARK  227  A    between atoms: _552  and  _553
REMARK  228  A    between atoms: _553  and  _554
REMARK  229  A    between atoms: _554  and  _555
REMARK  230  A    between atoms: _564  and  _566
REMARK  231  A    between atoms: _566  and  _567
REMARK  232  A    between atoms: _566  and  _569
REMARK  233  A    between atoms: _569  and  _570
REMARK  234  A    between atoms: _572  and  _574
REMARK  235  A    between atoms: _574  and  _575
REMARK  236  A    between atoms: _574  and  _577
REMARK  237  A    between atoms: _577  and  _578
REMARK  238  A    between atoms: _584  and  _586
REMARK  239  A    between atoms: _586  and  _587
REMARK  240  A    between atoms: _590  and  _592
REMARK  241  A    between atoms: _592  and  _593
REMARK  242  A    between atoms: _592  and  _595
REMARK  243  A    between atoms: _595  and  _596
REMARK  244  A    between atoms: _596  and  _597
REMARK  245  A    between atoms: _600  and  _602
REMARK  246  A    between atoms: _602  and  _603
REMARK  247  A    between atoms: _602  and  _605
REMARK  248  A    between atoms: _605  and  _606
REMARK                            x       y       z     vdW  Elec       q    Type
REMARK                         _______ _______ _______ _____ _____    ______ ____
ROOT
ATOM      1  CA  SER A   2       9.466  16.384 -10.914  0.00  0.00    +0.178 C 
ENDROOT
BRANCH   1   2
ATOM      2  C   SER A   2       8.802  16.701  -9.564  0.00  0.00    +0.243 C 
ATOM      3  O   SER A   2       8.249  15.820  -8.941  0.00  0.00    -0.273 OA
ATOM      4  N   PHE A   3       8.853  17.959  -9.128  0.00  0.00    -0.297 N 
ATOM      5  H   PHE A   3       9.283  18.691  -9.729  0.00  0.00    +0.150 HD
BRANCH   4   6
ATOM      6  CA  PHE A   3       8.314  18.330  -7.817  0.00  0.00    +0.153 C 
BRANCH   6   7
ATOM      7  C   PHE A   3       6.793  18.296  -7.798  0.00  0.00    +0.241 C 
ATOM      8  O   PHE A   3       6.182  18.318  -6.723  0.00  0.00    -0.273 OA
ATOM      9  N   ALA A   4       6.193  18.219  -8.987  0.00  0.00    -0.298 N 
ATOM     10  H   ALA A   4       6.773  18.252  -9.849  0.00  0.00    +0.150 HD
BRANCH   9  11
ATOM     11  CA  ALA A   4       4.750  18.090  -9.110  0.00  0.00    +0.137 C 
ATOM     12  CB  ALA A   4       4.248  19.067 -10.147  0.00  0.00    +0.030 C 
BRANCH  11  13
ATOM     13  C   ALA A   4       4.368  16.644  -9.475  0.00  0.00    +0.227 C 
ATOM     14  O   ALA A   4       3.452  16.053  -8.891  0.00  0.00    -0.286 OA
ENDBRANCH  11  13
ENDBRANCH   9  11
ENDBRANCH   6   7
BRANCH   6  15
ATOM     15  CB  PHE A   3       8.822  19.698  -7.359  0.00  0.00    +0.055 C 
BRANCH  15  16
ATOM     16  CG  PHE A   3       8.645  20.782  -8.370  0.00  0.00    -0.020 A 
ATOM     17  CD2 PHE A   3       7.427  21.411  -8.509  0.00  0.00    -0.004 A 
ATOM     18  CE2 PHE A   3       7.241  22.409  -9.449  0.00  0.00    -0.000 A 
ATOM     19  CZ  PHE A   3       8.299  22.803 -10.242  0.00  0.00    -0.000 A 
ATOM     20  CE1 PHE A   3       9.523  22.195 -10.107  0.00  0.00    -0.000 A 
ATOM     21  CD1 PHE A   3       9.696  21.179  -9.173  0.00  0.00    -0.004 A 
ENDBRANCH  15  16
ENDBRANCH   6  15
ENDBRANCH   4   6
ENDBRANCH   1   2
BRANCH   1  23
ATOM     22  C   ARG A   1       8.184  17.958 -12.262  0.00  0.00    +0.238 C 
ATOM     23  N   SER A   2       9.357  17.496 -11.846  0.00  0.00    -0.295 N 
ATOM     24  H   SER A   2      10.227  17.944 -12.198  0.00  0.00    +0.150 HD
ATOM     25  O   ARG A   1       7.108  17.513 -11.868  0.00  0.00    -0.274 OA
BRANCH  22  26
ATOM     26  CA  ARG A   1       8.248  19.103 -13.288  0.00  0.00    +0.145 C 
BRANCH  26  27
ATOM     27  N   ARG A   1       7.851  18.672 -14.640  0.00  0.00    -0.238 NA
ATOM     28  H   ARG A   1       6.955  18.161 -14.773  0.00  0.00    +0.142 HD
ENDBRANCH  26  27
BRANCH  26  29
ATOM     29  CB  ARG A   1       7.398  20.308 -12.846  0.00  0.00    +0.030 C 
BRANCH  29  30
ATOM     30  CG  ARG A   1       7.765  21.581 -13.601  0.00  0.00    +0.045 C 
BRANCH  30  31
ATOM     31  CD  ARG A   1       6.823  22.756 -13.381  0.00  0.00    +0.174 C 
BRANCH  31  32
ATOM     32  NE  ARG A   1       7.327  23.939 -14.090  0.00  0.00    -0.265 N 
ATOM     33  CZ  ARG A   1       6.683  25.100 -14.239  0.00  0.00    +0.342 C 
ATOM     34  NH2 ARG A   1       5.471  25.284 -13.734  0.00  0.00    -0.292 N 
ATOM     35 HH21 ARG A   1       5.004  24.516 -13.210  0.00  0.00    +0.255 HD
ATOM     36 HH22 ARG A   1       4.987  26.196 -13.862  0.00  0.00    +0.255 HD
ATOM     37  NH1 ARG A   1       7.259  26.088 -14.922  0.00  0.00    -0.292 N 
ATOM     38 HH11 ARG A   1       6.764  26.995 -15.042  0.00  0.00    +0.255 HD
ATOM     39 HH12 ARG A   1       8.204  25.953 -15.335  0.00  0.00    +0.255 HD
ATOM     40  HE  ARG A   1       8.273  23.866 -14.516  0.00  0.00    +0.259 HD
ENDBRANCH  31  32
ENDBRANCH  30  31
ENDBRANCH  29  30
ENDBRANCH  26  29
ENDBRANCH  22  26
ENDBRANCH   1  23
BRANCH   1  41
ATOM     41  CB  SER A   2      10.935  16.019 -10.706  0.00  0.00    +0.166 C 
BRANCH  41  42
ATOM     42  OG  SER A   2      11.694  17.191 -10.397  0.00  0.00    -0.380 OA
ATOM     43  H   SER A   2      11.622  17.836 -11.144  0.00  0.00    +0.211 HD
ENDBRANCH  41  42
ENDBRANCH   1  41
TORSDOF 16
REMARK  Name = ../refined-set-2016/4pzv/4pzv_pocket.pdb
REMARK  248 active torsions:
REMARK  status: ('A' for Active; 'I' for Inactive)
REMARK    1  A    between atoms: _1  and  _3
REMARK    2  A    between atoms: _3  and  _4
REMARK    3  A    between atoms: _3  and  _6
REMARK    4  A    between atoms: _6  and  _7
REMARK    5  A    between atoms: _10  and  _12
REMARK    6  A    between atoms: _12  and  _13
REMARK    7  A    between atoms: _12  and  _15
REMARK    8  A    between atoms: _15  and  _16
REMARK    9  A    between atoms: _19  and  _21
REMARK   10  A    between atoms: _21  and  _22
REMARK   11  A    between atoms: _24  and  _26
REMARK   12  A    between atoms: _26  and  _27
REMARK   13  A    between atoms: _26  and  _29
REMARK   14  A    between atoms: _29  and  _30
REMARK   15  A    between atoms: _33  and  _35
REMARK   16  A    between atoms: _35  and  _36
REMARK   17  A    between atoms: _38  and  _40
REMARK   18  A    between atoms: _40  and  _41
REMARK   19  A    between atoms: _40  and  _43
REMARK   20  A    between atoms: _43  and  _44
REMARK   21  A    between atoms: _47  and  _49
REMARK   22  A    between atoms: _49  and  _50
REMARK   23  A    between atoms: _49  and  _52
REMARK   24  A    between atoms: _52  and  _53
REMARK   25  A    between atoms: _58  and  _60
REMARK   26  A    between atoms: _60  and  _61
REMARK   27  A    between atoms: _60  and  _63
REMARK   28  A    between atoms: _63  and  _64
REMARK   29  A    between atoms: _69  and  _70
REMARK   30  A    between atoms: _72  and  _74
REMARK   31  A    between atoms: _74  and  _75
REMARK   32  A    between atoms: _74  and  _77
REMARK   33  A    between atoms: _77  and  _78
REMARK   34  A    between atoms: _80  and  _82
REMARK   35  A    between atoms: _82  and  _83
REMARK   36  A    between atoms: _82  and  _85
REMARK   37  A    between atoms: _85  and  _86
REMARK   38  A    between atoms: _88  and  _90
REMARK   39  A    between atoms: _90  and  _91
REMARK   40  A    between atoms: _90  and  _93
REMARK   41  A    between atoms: _93  and  _94
REMARK   42  A    between atoms: _94  and  _95
REMARK   43  A    between atoms: _95  and  _96
REMARK   44  A    between atoms: _96  and  _97
REMARK   45  A    between atoms: _101  and  _103
REMARK   46  A    between atoms: _103  and  _104
REMARK   47  A    between atoms: _107  and  _109
REMARK   48  A    between atoms: _109  and  _110
REMARK   49  A    between atoms: _109  and  _112
REMARK   50  A    between atoms: _115  and  _117
REMARK   51  A    between atoms: _117  and  _118
REMARK   52  A    between atoms: _117  and  _120
REMARK   53  A    between atoms: _120  and  _121
REMARK   54  A    between atoms: _124  and  _126
REMARK   55  A    between atoms: _126  and  _127
REMARK   56  A    between atoms: _126  and  _129
REMARK   57  A    between atoms: _129  and  _130
REMARK   58  A    between atoms: _130  and  _131
REMARK   59  A    between atoms: _131  and  _132
REMARK   60  A    between atoms: _132  and  _133
REMARK   61  A    between atoms: _137  and  _139
REMARK   62  A    between atoms: _139  and  _140
REMARK   63  A    between atoms: _139  and  _142
REMARK   64  A    between atoms: _142  and  _143
REMARK   65  A    between atoms: _153  and  _155
REMARK   66  A    between atoms: _155  and  _156
REMARK   67  A    between atoms: _155  and  _158
REMARK   68  A    between atoms: _158  and  _159
REMARK   69  A    between atoms: _162  and  _164
REMARK   70  A    between atoms: _164  and  _165
REMARK   71  A    between atoms: _164  and  _167
REMARK   72  A    between atoms: _167  and  _168
REMARK   73  A    between atoms: _168  and  _169
REMARK   74  A    between atoms: _169  and  _170
REMARK   75  A    between atoms: _179  and  _181
REMARK   76  A    between atoms: _181  and  _182
REMARK   77  A    between atoms: _181  and  _184
REMARK   78  A    between atoms: _184  and  _185
REMARK   79  A    between atoms: _191  and  _193
REMARK   80  A    between atoms: _193  and  _194
REMARK   81  A    between atoms: _193  and  _196
REMARK   82  A    between atoms: _196  and  _197
REMARK   83  A    between atoms: _200  and  _202
REMARK   84  A    between atoms: _202  and  _203
REMARK   85  A    between atoms: _202  and  _205
REMARK   86  A    between atoms: _205  and  _206
REMARK   87  A    between atoms: _211  and  _213
REMARK   88  A    between atoms: _213  and  _214
REMARK   89  A    between atoms: _213  and  _216
REMARK   90  A    between atoms: _216  and  _217
REMARK   91  A    between atoms: _221  and  _222
REMARK   92  A    between atoms: _227  and  _229
REMARK   93  A    between atoms: _229  and  _230
REMARK   94  A    between atoms: _229  and  _232
REMARK   95  A    between atoms: _232  and  _233
REMARK   96  A    between atoms: _236  and  _238
REMARK   97  A    between atoms: _238  and  _239
REMARK   98  A    between atoms: _238  and  _241
REMARK   99  A    between atoms: _241  and  _242
REMARK  100  A    between atoms: _245  and  _247
REMARK  101  A    between atoms: _247  and  _248
REMARK  102  A    between atoms: _247  and  _250
REMARK  103  A    between atoms: _250  and  _251
REMARK  104  A    between atoms: _254  and  _256
REMARK  105  A    between atoms: _256  and  _257
REMARK  106  A    between atoms: _256  and  _259
REMARK  107  A    between atoms: _259  and  _260
REMARK  108  A    between atoms: _260  and  _261
REMARK  109  A    between atoms: _261  and  _262
REMARK  110  A    between atoms: _262  and  _263
REMARK  111  A    between atoms: _267  and  _269
REMARK  112  A    between atoms: _269  and  _270
REMARK  113  A    between atoms: _269  and  _272
REMARK  114  A    between atoms: _272  and  _273
REMARK  115  A    between atoms: _273  and  _274
REMARK  116  A    between atoms: _277  and  _279
REMARK  117  A    between atoms: _279  and  _280
REMARK  118  A    between atoms: _279  and  _282
REMARK  119  A    between atoms: _282  and  _283
REMARK  120  A    between atoms: _283  and  _284
REMARK  121  A    between atoms: _284  and  _285
REMARK  122  A    between atoms: _294  and  _296
REMARK  123  A    between atoms: _296  and  _297
REMARK  124  A    between atoms: _296  and  _299
REMARK  125  A    between atoms: _299  and  _300
REMARK  126  A    between atoms: _303  and  _305
REMARK  127  A    between atoms: _305  and  _306
REMARK  128  A    between atoms: _310  and  _311
REMARK  129  A    between atoms: _316  and  _318
REMARK  130  A    between atoms: _318  and  _319
REMARK  131  A    between atoms: _322  and  _324
REMARK  132  A    between atoms: _324  and  _325
REMARK  133  A    between atoms: _324  and  _327
REMARK  134  A    between atoms: _327  and  _328
REMARK  135  A    between atoms: _338  and  _340
REMARK  136  A    between atoms: _340  and  _341
REMARK  137  A    between atoms: _340  and  _343
REMARK  138  A    between atoms: _343  and  _344
REMARK  139  A    between atoms: _347  and  _348
REMARK  140  A    between atoms: _353  and  _355
REMARK  141  A    between atoms: _355  and  _356
REMARK  142  A    between atoms: _355  and  _358
REMARK  143  A    between atoms: _358  and  _359
REMARK  144  A    between atoms: _359  and  _360
REMARK  145  A    between atoms: _360  and  _361
REMARK  146  A    between atoms: _370  and  _372
REMARK  147  A    between atoms: _372  and  _373
REMARK  148  A    between atoms: _372  and  _375
REMARK  149  A    between atoms: _375  and  _376
REMARK  150  A    between atoms: _379  and  _381
REMARK  151  A    between atoms: _381  and  _382
REMARK  152  A    between atoms: _381  and  _384
REMARK  153  A    between atoms: _384  and  _385
REMARK  154  A    between atoms: _388  and  _390
REMARK  155  A    between atoms: _390  and  _391
REMARK  156  A    between atoms: _390  and  _393
REMARK  157  A    between atoms: _393  and  _394
REMARK  158  A    between atoms: _397  and  _399
REMARK  159  A    between atoms: _399  and  _400
REMARK  160  A    between atoms: _399  and  _402
REMARK  161  A    between atoms: _402  and  _403
REMARK  162  A    between atoms: _406  and  _408
REMARK  163  A    between atoms: _408  and  _409
REMARK  164  A    between atoms: _408  and  _411
REMARK  165  A    between atoms: _411  and  _412
REMARK  166  A    between atoms: _415  and  _417
REMARK  167  A    between atoms: _417  and  _418
REMARK  168  A    between atoms: _417  and  _420
REMARK  169  A    between atoms: _420  and  _421
REMARK  170  A    between atoms: _424  and  _426
REMARK  171  A    between atoms: _426  and  _427
REMARK  172  A    between atoms: _430  and  _432
REMARK  173  A    between atoms: _432  and  _433
REMARK  174  A    between atoms: _432  and  _435
REMARK  175  A    between atoms: _435  and  _436
REMARK  176  A    between atoms: _439  and  _441
REMARK  177  A    between atoms: _441  and  _442
REMARK  178  A    between atoms: _441  and  _444
REMARK  179  A    between atoms: _444  and  _445
REMARK  180  A    between atoms: _448  and  _450
REMARK  181  A    between atoms: _450  and  _451
REMARK  182  A    between atoms: _450  and  _453
REMARK  183  A    between atoms: _453  and  _454
REMARK  184  A    between atoms: _457  and  _459
REMARK  185  A    between atoms: _459  and  _460
REMARK  186  A    between atoms: _459  and  _462
REMARK  187  A    between atoms: _462  and  _463
REMARK  188  A    between atoms: _463  and  _464
REMARK  189  A    between atoms: _464  and  _465
REMARK  190  A    between atoms: _465  and  _466
REMARK  191  A    between atoms: _470  and  _472
REMARK  192  A    between atoms: _472  and  _473
REMARK  193  A    between atoms: _472  and  _475
REMARK  194  A    between atoms: _475  and  _476
REMARK  195  A    between atoms: _479  and  _481
REMARK  196  A    between atoms: _481  and  _482
REMARK  197  A    between atoms: _481  and  _484
REMARK  198  A    between atoms: _484  and  _485
REMARK  199  A    between atoms: _488  and  _490
REMARK  200  A    between atoms: _490  and  _491
REMARK  201  A    between atoms: _490  and  _493
REMARK  202  A    between atoms: _493  and  _494
REMARK  203  A    between atoms: _498  and  _499
REMARK  204  A    between atoms: _504  and  _506
REMARK  205  A    between atoms: _506  and  _507
REMARK  206  A    between atoms: _506  and  _509
REMARK  207  A    between atoms: _509  and  _510
REMARK  208  A    between atoms: _515  and  _517
REMARK  209  A    between atoms: _517  and  _518
REMARK  210  A    between atoms: _517  and  _520
REMARK  211  A    between atoms: _520  and  _521
REMARK  212  A    between atoms: _521  and  _522
REMARK  213  A    between atoms: _522  and  _523
REMARK  214  A    between atoms: _523  and  _524
REMARK  215  A    between atoms: _528  and  _530
REMARK  216  A    between atoms: _530  and  _531
REMARK  217  A    between atoms: _530  and  _533
REMARK  218  A    between atoms: _533  and  _534
REMARK  219  A    between atoms: _534  and  _535
REMARK  220  A    between atoms: _538  and  _540
REMARK  221  A    between atoms: _540  and  _541
REMARK  222  A    between atoms: _540  and  _543
REMARK  223  A    between atoms: _543  and  _544
REMARK  224  A    between atoms: _547  and  _549
REMARK  225  A    between atoms: _549  and  _550
REMARK  226  A    between atoms: _549  and  _552
REMARK  227  A    between atoms: _552  and  _553
REMARK  228  A    between atoms: _553  and  _554
REMARK  229  A    between atoms: _554  and  _555
REMARK  230  A    between atoms: _564  and  _566
REMARK  231  A    between atoms: _566  and  _567
REMARK  232  A    between atoms: _566  and  _569
REMARK  233  A    between atoms: _569  and  _570
REMARK  234  A    between atoms: _572  and  _574
REMARK  235  A    between atoms: _574  and  _575
REMARK  236  A    between atoms: _574  and  _577
REMARK  237  A    between atoms: _577  and  _578
REMARK  238  A    between atoms: _584  and  _586
REMARK  239  A    between atoms: _586  and  _587
REMARK  240  A    between atoms: _590  and  _592
REMARK  241  A    between atoms: _592  and  _593
REMARK  242  A    between atoms: _592  and  _595
REMARK  243  A    between atoms: _595  and  _596
REMARK  244  A    between atoms: _596  and  _597
REMARK  245  A    between atoms: _600  and  _602
REMARK  246  A    between atoms: _602  and  _603
REMARK  247  A    between atoms: _602  and  _605
REMARK  248  A    between atoms: _605  and  _606
REMARK                            x       y       z     vdW  Elec       q    Type
REMARK                         _______ _______ _______ _____ _____    ______ ____
ROOT
ATOM      1  C   GLU A   1      15.379  16.541  -8.456  0.00  0.00    +0.238 C 
ATOM      2  N   ILE A   2      15.096  15.503  -7.681  0.00  0.00    -0.298 N 
ATOM      3  H   ILE A   2      15.550  14.583  -7.852  0.00  0.00    +0.150 HD
ATOM      4  O   GLU A   1      14.807  17.628  -8.340  0.00  0.00    -0.274 OA
ENDROOT
BRANCH   1   5
ATOM      5  CA  GLU A   1      16.472  16.332  -9.508  0.00  0.00    +0.145 C 
BRANCH   5   6
ATOM      6  N   GLU A   1      16.318  15.109 -10.310  0.00  0.00    -0.238 NA
ATOM      7  H   GLU A   1      17.125  14.455 -10.364  0.00  0.00    +0.142 HD
ENDBRANCH   5   6
BRANCH   5   8
ATOM      8  CB  GLU A   1      16.580  17.563 -10.417  0.00  0.00    +0.038 C 
BRANCH   8   9
ATOM      9  CG  GLU A   1      18.013  17.854 -10.861  0.00  0.00    +0.116 C 
BRANCH   9  10
ATOM     10  CD  GLU A   1      18.077  18.926 -11.914  0.00  0.00    +0.365 C 
ATOM     11  OE2 GLU A   1      18.949  19.826 -11.796  0.00  0.00    -0.246 OA
ATOM     12  OE1 GLU A   1      17.252  18.870 -12.861  0.00  0.00    -0.246 OA
ENDBRANCH   9  10
ENDBRANCH   8   9
ENDBRANCH   5   8
ENDBRANCH   1   5
BRANCH   2  13
ATOM     13  CA  ILE A   2      14.150  15.658  -6.595  0.00  0.00    +0.137 C 
BRANCH  13  14
ATOM     14  C   ILE A   2      14.476  14.735  -5.433  0.00  0.00    +0.227 C 
ATOM     15  O   ILE A   2      14.754  13.554  -5.625  0.00  0.00    -0.286 OA
ENDBRANCH  13  14
BRANCH  13  16
ATOM     16  CB  ILE A   2      12.712  15.417  -7.065  0.00  0.00    +0.026 C 
ATOM     17  CG2 ILE A   2      12.411  13.928  -7.098  0.00  0.00    +0.002 C 
BRANCH  16  18
ATOM     18  CG1 ILE A   2      11.746  16.169  -6.152  0.00  0.00    +0.002 C 
ATOM     19  CD1 ILE A   2      10.408  16.273  -6.688  0.00  0.00    +0.000 C 
ENDBRANCH  16  18
ENDBRANCH  13  16
ENDBRANCH   2  13
TORSDOF 9
REMARK  Name = ../refined-set-2016/4pzv/4pzv_pocket.pdb
REMARK  248 active torsions:
REMARK  status: ('A' for Active; 'I' for Inactive)
REMARK    1  A    between atoms: _1  and  _3
REMARK    2  A    between atoms: _3  and  _4
REMARK    3  A    between atoms: _3  and  _6
REMARK    4  A    between atoms: _6  and  _7
REMARK    5  A    between atoms: _10  and  _12
REMARK    6  A    between atoms: _12  and  _13
REMARK    7  A    between atoms: _12  and  _15
REMARK    8  A    between atoms: _15  and  _16
REMARK    9  A    between atoms: _19  and  _21
REMARK   10  A    between atoms: _21  and  _22
REMARK   11  A    between atoms: _24  and  _26
REMARK   12  A    between atoms: _26  and  _27
REMARK   13  A    between atoms: _26  and  _29
REMARK   14  A    between atoms: _29  and  _30
REMARK   15  A    between atoms: _33  and  _35
REMARK   16  A    between atoms: _35  and  _36
REMARK   17  A    between atoms: _38  and  _40
REMARK   18  A    between atoms: _40  and  _41
REMARK   19  A    between atoms: _40  and  _43
REMARK   20  A    between atoms: _43  and  _44
REMARK   21  A    between atoms: _47  and  _49
REMARK   22  A    between atoms: _49  and  _50
REMARK   23  A    between atoms: _49  and  _52
REMARK   24  A    between atoms: _52  and  _53
REMARK   25  A    between atoms: _58  and  _60
REMARK   26  A    between atoms: _60  and  _61
REMARK   27  A    between atoms: _60  and  _63
REMARK   28  A    between atoms: _63  and  _64
REMARK   29  A    between atoms: _69  and  _70
REMARK   30  A    between atoms: _72  and  _74
REMARK   31  A    between atoms: _74  and  _75
REMARK   32  A    between atoms: _74  and  _77
REMARK   33  A    between atoms: _77  and  _78
REMARK   34  A    between atoms: _80  and  _82
REMARK   35  A    between atoms: _82  and  _83
REMARK   36  A    between atoms: _82  and  _85
REMARK   37  A    between atoms: _85  and  _86
REMARK   38  A    between atoms: _88  and  _90
REMARK   39  A    between atoms: _90  and  _91
REMARK   40  A    between atoms: _90  and  _93
REMARK   41  A    between atoms: _93  and  _94
REMARK   42  A    between atoms: _94  and  _95
REMARK   43  A    between atoms: _95  and  _96
REMARK   44  A    between atoms: _96  and  _97
REMARK   45  A    between atoms: _101  and  _103
REMARK   46  A    between atoms: _103  and  _104
REMARK   47  A    between atoms: _107  and  _109
REMARK   48  A    between atoms: _109  and  _110
REMARK   49  A    between atoms: _109  and  _112
REMARK   50  A    between atoms: _115  and  _117
REMARK   51  A    between atoms: _117  and  _118
REMARK   52  A    between atoms: _117  and  _120
REMARK   53  A    between atoms: _120  and  _121
REMARK   54  A    between atoms: _124  and  _126
REMARK   55  A    between atoms: _126  and  _127
REMARK   56  A    between atoms: _126  and  _129
REMARK   57  A    between atoms: _129  and  _130
REMARK   58  A    between atoms: _130  and  _131
REMARK   59  A    between atoms: _131  and  _132
REMARK   60  A    between atoms: _132  and  _133
REMARK   61  A    between atoms: _137  and  _139
REMARK   62  A    between atoms: _139  and  _140
REMARK   63  A    between atoms: _139  and  _142
REMARK   64  A    between atoms: _142  and  _143
REMARK   65  A    between atoms: _153  and  _155
REMARK   66  A    between atoms: _155  and  _156
REMARK   67  A    between atoms: _155  and  _158
REMARK   68  A    between atoms: _158  and  _159
REMARK   69  A    between atoms: _162  and  _164
REMARK   70  A    between atoms: _164  and  _165
REMARK   71  A    between atoms: _164  and  _167
REMARK   72  A    between atoms: _167  and  _168
REMARK   73  A    between atoms: _168  and  _169
REMARK   74  A    between atoms: _169  and  _170
REMARK   75  A    between atoms: _179  and  _181
REMARK   76  A    between atoms: _181  and  _182
REMARK   77  A    between atoms: _181  and  _184
REMARK   78  A    between atoms: _184  and  _185
REMARK   79  A    between atoms: _191  and  _193
REMARK   80  A    between atoms: _193  and  _194
REMARK   81  A    between atoms: _193  and  _196
REMARK   82  A    between atoms: _196  and  _197
REMARK   83  A    between atoms: _200  and  _202
REMARK   84  A    between atoms: _202  and  _203
REMARK   85  A    between atoms: _202  and  _205
REMARK   86  A    between atoms: _205  and  _206
REMARK   87  A    between atoms: _211  and  _213
REMARK   88  A    between atoms: _213  and  _214
REMARK   89  A    between atoms: _213  and  _216
REMARK   90  A    between atoms: _216  and  _217
REMARK   91  A    between atoms: _221  and  _222
REMARK   92  A    between atoms: _227  and  _229
REMARK   93  A    between atoms: _229  and  _230
REMARK   94  A    between atoms: _229  and  _232
REMARK   95  A    between atoms: _232  and  _233
REMARK   96  A    between atoms: _236  and  _238
REMARK   97  A    between atoms: _238  and  _239
REMARK   98  A    between atoms: _238  and  _241
REMARK   99  A    between atoms: _241  and  _242
REMARK  100  A    between atoms: _245  and  _247
REMARK  101  A    between atoms: _247  and  _248
REMARK  102  A    between atoms: _247  and  _250
REMARK  103  A    between atoms: _250  and  _251
REMARK  104  A    between atoms: _254  and  _256
REMARK  105  A    between atoms: _256  and  _257
REMARK  106  A    between atoms: _256  and  _259
REMARK  107  A    between atoms: _259  and  _260
REMARK  108  A    between atoms: _260  and  _261
REMARK  109  A    between atoms: _261  and  _262
REMARK  110  A    between atoms: _262  and  _263
REMARK  111  A    between atoms: _267  and  _269
REMARK  112  A    between atoms: _269  and  _270
REMARK  113  A    between atoms: _269  and  _272
REMARK  114  A    between atoms: _272  and  _273
REMARK  115  A    between atoms: _273  and  _274
REMARK  116  A    between atoms: _277  and  _279
REMARK  117  A    between atoms: _279  and  _280
REMARK  118  A    between atoms: _279  and  _282
REMARK  119  A    between atoms: _282  and  _283
REMARK  120  A    between atoms: _283  and  _284
REMARK  121  A    between atoms: _284  and  _285
REMARK  122  A    between atoms: _294  and  _296
REMARK  123  A    between atoms: _296  and  _297
REMARK  124  A    between atoms: _296  and  _299
REMARK  125  A    between atoms: _299  and  _300
REMARK  126  A    between atoms: _303  and  _305
REMARK  127  A    between atoms: _305  and  _306
REMARK  128  A    between atoms: _310  and  _311
REMARK  129  A    between atoms: _316  and  _318
REMARK  130  A    between atoms: _318  and  _319
REMARK  131  A    between atoms: _322  and  _324
REMARK  132  A    between atoms: _324  and  _325
REMARK  133  A    between atoms: _324  and  _327
REMARK  134  A    between atoms: _327  and  _328
REMARK  135  A    between atoms: _338  and  _340
REMARK  136  A    between atoms: _340  and  _341
REMARK  137  A    between atoms: _340  and  _343
REMARK  138  A    between atoms: _343  and  _344
REMARK  139  A    between atoms: _347  and  _348
REMARK  140  A    between atoms: _353  and  _355
REMARK  141  A    between atoms: _355  and  _356
REMARK  142  A    between atoms: _355  and  _358
REMARK  143  A    between atoms: _358  and  _359
REMARK  144  A    between atoms: _359  and  _360
REMARK  145  A    between atoms: _360  and  _361
REMARK  146  A    between atoms: _370  and  _372
REMARK  147  A    between atoms: _372  and  _373
REMARK  148  A    between atoms: _372  and  _375
REMARK  149  A    between atoms: _375  and  _376
REMARK  150  A    between atoms: _379  and  _381
REMARK  151  A    between atoms: _381  and  _382
REMARK  152  A    between atoms: _381  and  _384
REMARK  153  A    between atoms: _384  and  _385
REMARK  154  A    between atoms: _388  and  _390
REMARK  155  A    between atoms: _390  and  _391
REMARK  156  A    between atoms: _390  and  _393
REMARK  157  A    between atoms: _393  and  _394
REMARK  158  A    between atoms: _397  and  _399
REMARK  159  A    between atoms: _399  and  _400
REMARK  160  A    between atoms: _399  and  _402
REMARK  161  A    between atoms: _402  and  _403
REMARK  162  A    between atoms: _406  and  _408
REMARK  163  A    between atoms: _408  and  _409
REMARK  164  A    between atoms: _408  and  _411
REMARK  165  A    between atoms: _411  and  _412
REMARK  166  A    between atoms: _415  and  _417
REMARK  167  A    between atoms: _417  and  _418
REMARK  168  A    between atoms: _417  and  _420
REMARK  169  A    between atoms: _420  and  _421
REMARK  170  A    between atoms: _424  and  _426
REMARK  171  A    between atoms: _426  and  _427
REMARK  172  A    between atoms: _430  and  _432
REMARK  173  A    between atoms: _432  and  _433
REMARK  174  A    between atoms: _432  and  _435
REMARK  175  A    between atoms: _435  and  _436
REMARK  176  A    between atoms: _439  and  _441
REMARK  177  A    between atoms: _441  and  _442
REMARK  178  A    between atoms: _441  and  _444
REMARK  179  A    between atoms: _444  and  _445
REMARK  180  A    between atoms: _448  and  _450
REMARK  181  A    between atoms: _450  and  _451
REMARK  182  A    between atoms: _450  and  _453
REMARK  183  A    between atoms: _453  and  _454
REMARK  184  A    between atoms: _457  and  _459
REMARK  185  A    between atoms: _459  and  _460
REMARK  186  A    between atoms: _459  and  _462
REMARK  187  A    between atoms: _462  and  _463
REMARK  188  A    between atoms: _463  and  _464
REMARK  189  A    between atoms: _464  and  _465
REMARK  190  A    between atoms: _465  and  _466
REMARK  191  A    between atoms: _470  and  _472
REMARK  192  A    between atoms: _472  and  _473
REMARK  193  A    between atoms: _472  and  _475
REMARK  194  A    between atoms: _475  and  _476
REMARK  195  A    between atoms: _479  and  _481
REMARK  196  A    between atoms: _481  and  _482
REMARK  197  A    between atoms: _481  and  _484
REMARK  198  A    between atoms: _484  and  _485
REMARK  199  A    between atoms: _488  and  _490
REMARK  200  A    between atoms: _490  and  _491
REMARK  201  A    between atoms: _490  and  _493
REMARK  202  A    between atoms: _493  and  _494
REMARK  203  A    between atoms: _498  and  _499
REMARK  204  A    between atoms: _504  and  _506
REMARK  205  A    between atoms: _506  and  _507
REMARK  206  A    between atoms: _506  and  _509
REMARK  207  A    between atoms: _509  and  _510
REMARK  208  A    between atoms: _515  and  _517
REMARK  209  A    between atoms: _517  and  _518
REMARK  210  A    between atoms: _517  and  _520
REMARK  211  A    between atoms: _520  and  _521
REMARK  212  A    between atoms: _521  and  _522
REMARK  213  A    between atoms: _522  and  _523
REMARK  214  A    between atoms: _523  and  _524
REMARK  215  A    between atoms: _528  and  _530
REMARK  216  A    between atoms: _530  and  _531
REMARK  217  A    between atoms: _530  and  _533
REMARK  218  A    between atoms: _533  and  _534
REMARK  219  A    between atoms: _534  and  _535
REMARK  220  A    between atoms: _538  and  _540
REMARK  221  A    between atoms: _540  and  _541
REMARK  222  A    between atoms: _540  and  _543
REMARK  223  A    between atoms: _543  and  _544
REMARK  224  A    between atoms: _547  and  _549
REMARK  225  A    between atoms: _549  and  _550
REMARK  226  A    between atoms: _549  and  _552
REMARK  227  A    between atoms: _552  and  _553
REMARK  228  A    between atoms: _553  and  _554
REMARK  229  A    between atoms: _554  and  _555
REMARK  230  A    between atoms: _564  and  _566
REMARK  231  A    between atoms: _566  and  _567
REMARK  232  A    between atoms: _566  and  _569
REMARK  233  A    between atoms: _569  and  _570
REMARK  234  A    between atoms: _572  and  _574
REMARK  235  A    between atoms: _574  and  _575
REMARK  236  A    between atoms: _574  and  _577
REMARK  237  A    between atoms: _577  and  _578
REMARK  238  A    between atoms: _584  and  _586
REMARK  239  A    between atoms: _586  and  _587
REMARK  240  A    between atoms: _590  and  _592
REMARK  241  A    between atoms: _592  and  _593
REMARK  242  A    between atoms: _592  and  _595
REMARK  243  A    between atoms: _595  and  _596
REMARK  244  A    between atoms: _596  and  _597
REMARK  245  A    between atoms: _600  and  _602
REMARK  246  A    between atoms: _602  and  _603
REMARK  247  A    between atoms: _602  and  _605
REMARK  248  A    between atoms: _605  and  _606
REMARK                            x       y       z     vdW  Elec       q    Type
REMARK                         _______ _______ _______ _____ _____    ______ ____
ROOT
ATOM      1  O   HOH     1      10.464  20.413  -4.002  0.00  0.00    +0.000 OA
ENDROOT
TORSDOF 0
REMARK  Name = ../refined-set-2016/4pzv/4pzv_pocket.pdb
REMARK  248 active torsions:
REMARK  status: ('A' for Active; 'I' for Inactive)
REMARK    1  A    between atoms: _1  and  _3
REMARK    2  A    between atoms: _3  and  _4
REMARK    3  A    between atoms: _3  and  _6
REMARK    4  A    between atoms: _6  and  _7
REMARK    5  A    between atoms: _10  and  _12
REMARK    6  A    between atoms: _12  and  _13
REMARK    7  A    between atoms: _12  and  _15
REMARK    8  A    between atoms: _15  and  _16
REMARK    9  A    between atoms: _19  and  _21
REMARK   10  A    between atoms: _21  and  _22
REMARK   11  A    between atoms: _24  and  _26
REMARK   12  A    between atoms: _26  and  _27
REMARK   13  A    between atoms: _26  and  _29
REMARK   14  A    between atoms: _29  and  _30
REMARK   15  A    between atoms: _33  and  _35
REMARK   16  A    between atoms: _35  and  _36
REMARK   17  A    between atoms: _38  and  _40
REMARK   18  A    between atoms: _40  and  _41
REMARK   19  A    between atoms: _40  and  _43
REMARK   20  A    between atoms: _43  and  _44
REMARK   21  A    between atoms: _47  and  _49
REMARK   22  A    between atoms: _49  and  _50
REMARK   23  A    between atoms: _49  and  _52
REMARK   24  A    between atoms: _52  and  _53
REMARK   25  A    between atoms: _58  and  _60
REMARK   26  A    between atoms: _60  and  _61
REMARK   27  A    between atoms: _60  and  _63
REMARK   28  A    between atoms: _63  and  _64
REMARK   29  A    between atoms: _69  and  _70
REMARK   30  A    between atoms: _72  and  _74
REMARK   31  A    between atoms: _74  and  _75
REMARK   32  A    between atoms: _74  and  _77
REMARK   33  A    between atoms: _77  and  _78
REMARK   34  A    between atoms: _80  and  _82
REMARK   35  A    between atoms: _82  and  _83
REMARK   36  A    between atoms: _82  and  _85
REMARK   37  A    between atoms: _85  and  _86
REMARK   38  A    between atoms: _88  and  _90
REMARK   39  A    between atoms: _90  and  _91
REMARK   40  A    between atoms: _90  and  _93
REMARK   41  A    between atoms: _93  and  _94
REMARK   42  A    between atoms: _94  and  _95
REMARK   43  A    between atoms: _95  and  _96
REMARK   44  A    between atoms: _96  and  _97
REMARK   45  A    between atoms: _101  and  _103
REMARK   46  A    between atoms: _103  and  _104
REMARK   47  A    between atoms: _107  and  _109
REMARK   48  A    between atoms: _109  and  _110
REMARK   49  A    between atoms: _109  and  _112
REMARK   50  A    between atoms: _115  and  _117
REMARK   51  A    between atoms: _117  and  _118
REMARK   52  A    between atoms: _117  and  _120
REMARK   53  A    between atoms: _120  and  _121
REMARK   54  A    between atoms: _124  and  _126
REMARK   55  A    between atoms: _126  and  _127
REMARK   56  A    between atoms: _126  and  _129
REMARK   57  A    between atoms: _129  and  _130
REMARK   58  A    between atoms: _130  and  _131
REMARK   59  A    between atoms: _131  and  _132
REMARK   60  A    between atoms: _132  and  _133
REMARK   61  A    between atoms: _137  and  _139
REMARK   62  A    between atoms: _139  and  _140
REMARK   63  A    between atoms: _139  and  _142
REMARK   64  A    between atoms: _142  and  _143
REMARK   65  A    between atoms: _153  and  _155
REMARK   66  A    between atoms: _155  and  _156
REMARK   67  A    between atoms: _155  and  _158
REMARK   68  A    between atoms: _158  and  _159
REMARK   69  A    between atoms: _162  and  _164
REMARK   70  A    between atoms: _164  and  _165
REMARK   71  A    between atoms: _164  and  _167
REMARK   72  A    between atoms: _167  and  _168
REMARK   73  A    between atoms: _168  and  _169
REMARK   74  A    between atoms: _169  and  _170
REMARK   75  A    between atoms: _179  and  _181
REMARK   76  A    between atoms: _181  and  _182
REMARK   77  A    between atoms: _181  and  _184
REMARK   78  A    between atoms: _184  and  _185
REMARK   79  A    between atoms: _191  and  _193
REMARK   80  A    between atoms: _193  and  _194
REMARK   81  A    between atoms: _193  and  _196
REMARK   82  A    between atoms: _196  and  _197
REMARK   83  A    between atoms: _200  and  _202
REMARK   84  A    between atoms: _202  and  _203
REMARK   85  A    between atoms: _202  and  _205
REMARK   86  A    between atoms: _205  and  _206
REMARK   87  A    between atoms: _211  and  _213
REMARK   88  A    between atoms: _213  and  _214
REMARK   89  A    between atoms: _213  and  _216
REMARK   90  A    between atoms: _216  and  _217
REMARK   91  A    between atoms: _221  and  _222
REMARK   92  A    between atoms: _227  and  _229
REMARK   93  A    between atoms: _229  and  _230
REMARK   94  A    between atoms: _229  and  _232
REMARK   95  A    between atoms: _232  and  _233
REMARK   96  A    between atoms: _236  and  _238
REMARK   97  A    between atoms: _238  and  _239
REMARK   98  A    between atoms: _238  and  _241
REMARK   99  A    between atoms: _241  and  _242
REMARK  100  A    between atoms: _245  and  _247
REMARK  101  A    between atoms: _247  and  _248
REMARK  102  A    between atoms: _247  and  _250
REMARK  103  A    between atoms: _250  and  _251
REMARK  104  A    between atoms: _254  and  _256
REMARK  105  A    between atoms: _256  and  _257
REMARK  106  A    between atoms: _256  and  _259
REMARK  107  A    between atoms: _259  and  _260
REMARK  108  A    between atoms: _260  and  _261
REMARK  109  A    between atoms: _261  and  _262
REMARK  110  A    between atoms: _262  and  _263
REMARK  111  A    between atoms: _267  and  _269
REMARK  112  A    between atoms: _269  and  _270
REMARK  113  A    between atoms: _269  and  _272
REMARK  114  A    between atoms: _272  and  _273
REMARK  115  A    between atoms: _273  and  _274
REMARK  116  A    between atoms: _277  and  _279
REMARK  117  A    between atoms: _279  and  _280
REMARK  118  A    between atoms: _279  and  _282
REMARK  119  A    between atoms: _282  and  _283
REMARK  120  A    between atoms: _283  and  _284
REMARK  121  A    between atoms: _284  and  _285
REMARK  122  A    between atoms: _294  and  _296
REMARK  123  A    between atoms: _296  and  _297
REMARK  124  A    between atoms: _296  and  _299
REMARK  125  A    between atoms: _299  and  _300
REMARK  126  A    between atoms: _303  and  _305
REMARK  127  A    between atoms: _305  and  _306
REMARK  128  A    between atoms: _310  and  _311
REMARK  129  A    between atoms: _316  and  _318
REMARK  130  A    between atoms: _318  and  _319
REMARK  131  A    between atoms: _322  and  _324
REMARK  132  A    between atoms: _324  and  _325
REMARK  133  A    between atoms: _324  and  _327
REMARK  134  A    between atoms: _327  and  _328
REMARK  135  A    between atoms: _338  and  _340
REMARK  136  A    between atoms: _340  and  _341
REMARK  137  A    between atoms: _340  and  _343
REMARK  138  A    between atoms: _343  and  _344
REMARK  139  A    between atoms: _347  and  _348
REMARK  140  A    between atoms: _353  and  _355
REMARK  141  A    between atoms: _355  and  _356
REMARK  142  A    between atoms: _355  and  _358
REMARK  143  A    between atoms: _358  and  _359
REMARK  144  A    between atoms: _359  and  _360
REMARK  145  A    between atoms: _360  and  _361
REMARK  146  A    between atoms: _370  and  _372
REMARK  147  A    between atoms: _372  and  _373
REMARK  148  A    between atoms: _372  and  _375
REMARK  149  A    between atoms: _375  and  _376
REMARK  150  A    between atoms: _379  and  _381
REMARK  151  A    between atoms: _381  and  _382
REMARK  152  A    between atoms: _381  and  _384
REMARK  153  A    between atoms: _384  and  _385
REMARK  154  A    between atoms: _388  and  _390
REMARK  155  A    between atoms: _390  and  _391
REMARK  156  A    between atoms: _390  and  _393
REMARK  157  A    between atoms: _393  and  _394
REMARK  158  A    between atoms: _397  and  _399
REMARK  159  A    between atoms: _399  and  _400
REMARK  160  A    between atoms: _399  and  _402
REMARK  161  A    between atoms: _402  and  _403
REMARK  162  A    between atoms: _406  and  _408
REMARK  163  A    between atoms: _408  and  _409
REMARK  164  A    between atoms: _408  and  _411
REMARK  165  A    between atoms: _411  and  _412
REMARK  166  A    between atoms: _415  and  _417
REMARK  167  A    between atoms: _417  and  _418
REMARK  168  A    between atoms: _417  and  _420
REMARK  169  A    between atoms: _420  and  _421
REMARK  170  A    between atoms: _424  and  _426
REMARK  171  A    between atoms: _426  and  _427
REMARK  172  A    between atoms: _430  and  _432
REMARK  173  A    between atoms: _432  and  _433
REMARK  174  A    between atoms: _432  and  _435
REMARK  175  A    between atoms: _435  and  _436
REMARK  176  A    between atoms: _439  and  _441
REMARK  177  A    between atoms: _441  and  _442
REMARK  178  A    between atoms: _441  and  _444
REMARK  179  A    between atoms: _444  and  _445
REMARK  180  A    between atoms: _448  and  _450
REMARK  181  A    between atoms: _450  and  _451
REMARK  182  A    between atoms: _450  and  _453
REMARK  183  A    between atoms: _453  and  _454
REMARK  184  A    between atoms: _457  and  _459
REMARK  185  A    between atoms: _459  and  _460
REMARK  186  A    between atoms: _459  and  _462
REMARK  187  A    between atoms: _462  and  _463
REMARK  188  A    between atoms: _463  and  _464
REMARK  189  A    between atoms: _464  and  _465
REMARK  190  A    between atoms: _465  and  _466
REMARK  191  A    between atoms: _470  and  _472
REMARK  192  A    between atoms: _472  and  _473
REMARK  193  A    between atoms: _472  and  _475
REMARK  194  A    between atoms: _475  and  _476
REMARK  195  A    between atoms: _479  and  _481
REMARK  196  A    between atoms: _481  and  _482
REMARK  197  A    between atoms: _481  and  _484
REMARK  198  A    between atoms: _484  and  _485
REMARK  199  A    between atoms: _488  and  _490
REMARK  200  A    between atoms: _490  and  _491
REMARK  201  A    between atoms: _490  and  _493
REMARK  202  A    between atoms: _493  and  _494
REMARK  203  A    between atoms: _498  and  _499
REMARK  204  A    between atoms: _504  and  _506
REMARK  205  A    between atoms: _506  and  _507
REMARK  206  A    between atoms: _506  and  _509
REMARK  207  A    between atoms: _509  and  _510
REMARK  208  A    between atoms: _515  and  _517
REMARK  209  A    between atoms: _517  and  _518
REMARK  210  A    between atoms: _517  and  _520
REMARK  211  A    between atoms: _520  and  _521
REMARK  212  A    between atoms: _521  and  _522
REMARK  213  A    between atoms: _522  and  _523
REMARK  214  A    between atoms: _523  and  _524
REMARK  215  A    between atoms: _528  and  _530
REMARK  216  A    between atoms: _530  and  _531
REMARK  217  A    between atoms: _530  and  _533
REMARK  218  A    between atoms: _533  and  _534
REMARK  219  A    between atoms: _534  and  _535
REMARK  220  A    between atoms: _538  and  _540
REMARK  221  A    between atoms: _540  and  _541
REMARK  222  A    between atoms: _540  and  _543
REMARK  223  A    between atoms: _543  and  _544
REMARK  224  A    between atoms: _547  and  _549
REMARK  225  A    between atoms: _549  and  _550
REMARK  226  A    between atoms: _549  and  _552
REMARK  227  A    between atoms: _552  and  _553
REMARK  228  A    between atoms: _553  and  _554
REMARK  229  A    between atoms: _554  and  _555
REMARK  230  A    between atoms: _564  and  _566
REMARK  231  A    between atoms: _566  and  _567
REMARK  232  A    between atoms: _566  and  _569
REMARK  233  A    between atoms: _569  and  _570
REMARK  234  A    between atoms: _572  and  _574
REMARK  235  A    between atoms: _574  and  _575
REMARK  236  A    between atoms: _574  and  _577
REMARK  237  A    between atoms: _577  and  _578
REMARK  238  A    between atoms: _584  and  _586
REMARK  239  A    between atoms: _586  and  _587
REMARK  240  A    between atoms: _590  and  _592
REMARK  241  A    between atoms: _592  and  _593
REMARK  242  A    between atoms: _592  and  _595
REMARK  243  A    between atoms: _595  and  _596
REMARK  244  A    between atoms: _596  and  _597
REMARK  245  A    between atoms: _600  and  _602
REMARK  246  A    between atoms: _602  and  _603
REMARK  247  A    between atoms: _602  and  _605
REMARK  248  A    between atoms: _605  and  _606
REMARK                            x       y       z     vdW  Elec       q    Type
REMARK                         _______ _______ _______ _____ _____    ______ ____
ROOT
ATOM      1  O   HOH     1      -1.305  24.969 -16.573  0.00  0.00    +0.000 OA
ENDROOT
TORSDOF 0
REMARK  Name = ../refined-set-2016/4pzv/4pzv_pocket.pdb
REMARK  248 active torsions:
REMARK  status: ('A' for Active; 'I' for Inactive)
REMARK    1  A    between atoms: _1  and  _3
REMARK    2  A    between atoms: _3  and  _4
REMARK    3  A    between atoms: _3  and  _6
REMARK    4  A    between atoms: _6  and  _7
REMARK    5  A    between atoms: _10  and  _12
REMARK    6  A    between atoms: _12  and  _13
REMARK    7  A    between atoms: _12  and  _15
REMARK    8  A    between atoms: _15  and  _16
REMARK    9  A    between atoms: _19  and  _21
REMARK   10  A    between atoms: _21  and  _22
REMARK   11  A    between atoms: _24  and  _26
REMARK   12  A    between atoms: _26  and  _27
REMARK   13  A    between atoms: _26  and  _29
REMARK   14  A    between atoms: _29  and  _30
REMARK   15  A    between atoms: _33  and  _35
REMARK   16  A    between atoms: _35  and  _36
REMARK   17  A    between atoms: _38  and  _40
REMARK   18  A    between atoms: _40  and  _41
REMARK   19  A    between atoms: _40  and  _43
REMARK   20  A    between atoms: _43  and  _44
REMARK   21  A    between atoms: _47  and  _49
REMARK   22  A    between atoms: _49  and  _50
REMARK   23  A    between atoms: _49  and  _52
REMARK   24  A    between atoms: _52  and  _53
REMARK   25  A    between atoms: _58  and  _60
REMARK   26  A    between atoms: _60  and  _61
REMARK   27  A    between atoms: _60  and  _63
REMARK   28  A    between atoms: _63  and  _64
REMARK   29  A    between atoms: _69  and  _70
REMARK   30  A    between atoms: _72  and  _74
REMARK   31  A    between atoms: _74  and  _75
REMARK   32  A    between atoms: _74  and  _77
REMARK   33  A    between atoms: _77  and  _78
REMARK   34  A    between atoms: _80  and  _82
REMARK   35  A    between atoms: _82  and  _83
REMARK   36  A    between atoms: _82  and  _85
REMARK   37  A    between atoms: _85  and  _86
REMARK   38  A    between atoms: _88  and  _90
REMARK   39  A    between atoms: _90  and  _91
REMARK   40  A    between atoms: _90  and  _93
REMARK   41  A    between atoms: _93  and  _94
REMARK   42  A    between atoms: _94  and  _95
REMARK   43  A    between atoms: _95  and  _96
REMARK   44  A    between atoms: _96  and  _97
REMARK   45  A    between atoms: _101  and  _103
REMARK   46  A    between atoms: _103  and  _104
REMARK   47  A    between atoms: _107  and  _109
REMARK   48  A    between atoms: _109  and  _110
REMARK   49  A    between atoms: _109  and  _112
REMARK   50  A    between atoms: _115  and  _117
REMARK   51  A    between atoms: _117  and  _118
REMARK   52  A    between atoms: _117  and  _120
REMARK   53  A    between atoms: _120  and  _121
REMARK   54  A    between atoms: _124  and  _126
REMARK   55  A    between atoms: _126  and  _127
REMARK   56  A    between atoms: _126  and  _129
REMARK   57  A    between atoms: _129  and  _130
REMARK   58  A    between atoms: _130  and  _131
REMARK   59  A    between atoms: _131  and  _132
REMARK   60  A    between atoms: _132  and  _133
REMARK   61  A    between atoms: _137  and  _139
REMARK   62  A    between atoms: _139  and  _140
REMARK   63  A    between atoms: _139  and  _142
REMARK   64  A    between atoms: _142  and  _143
REMARK   65  A    between atoms: _153  and  _155
REMARK   66  A    between atoms: _155  and  _156
REMARK   67  A    between atoms: _155  and  _158
REMARK   68  A    between atoms: _158  and  _159
REMARK   69  A    between atoms: _162  and  _164
REMARK   70  A    between atoms: _164  and  _165
REMARK   71  A    between atoms: _164  and  _167
REMARK   72  A    between atoms: _167  and  _168
REMARK   73  A    between atoms: _168  and  _169
REMARK   74  A    between atoms: _169  and  _170
REMARK   75  A    between atoms: _179  and  _181
REMARK   76  A    between atoms: _181  and  _182
REMARK   77  A    between atoms: _181  and  _184
REMARK   78  A    between atoms: _184  and  _185
REMARK   79  A    between atoms: _191  and  _193
REMARK   80  A    between atoms: _193  and  _194
REMARK   81  A    between atoms: _193  and  _196
REMARK   82  A    between atoms: _196  and  _197
REMARK   83  A    between atoms: _200  and  _202
REMARK   84  A    between atoms: _202  and  _203
REMARK   85  A    between atoms: _202  and  _205
REMARK   86  A    between atoms: _205  and  _206
REMARK   87  A    between atoms: _211  and  _213
REMARK   88  A    between atoms: _213  and  _214
REMARK   89  A    between atoms: _213  and  _216
REMARK   90  A    between atoms: _216  and  _217
REMARK   91  A    between atoms: _221  and  _222
REMARK   92  A    between atoms: _227  and  _229
REMARK   93  A    between atoms: _229  and  _230
REMARK   94  A    between atoms: _229  and  _232
REMARK   95  A    between atoms: _232  and  _233
REMARK   96  A    between atoms: _236  and  _238
REMARK   97  A    between atoms: _238  and  _239
REMARK   98  A    between atoms: _238  and  _241
REMARK   99  A    between atoms: _241  and  _242
REMARK  100  A    between atoms: _245  and  _247
REMARK  101  A    between atoms: _247  and  _248
REMARK  102  A    between atoms: _247  and  _250
REMARK  103  A    between atoms: _250  and  _251
REMARK  104  A    between atoms: _254  and  _256
REMARK  105  A    between atoms: _256  and  _257
REMARK  106  A    between atoms: _256  and  _259
REMARK  107  A    between atoms: _259  and  _260
REMARK  108  A    between atoms: _260  and  _261
REMARK  109  A    between atoms: _261  and  _262
REMARK  110  A    between atoms: _262  and  _263
REMARK  111  A    between atoms: _267  and  _269
REMARK  112  A    between atoms: _269  and  _270
REMARK  113  A    between atoms: _269  and  _272
REMARK  114  A    between atoms: _272  and  _273
REMARK  115  A    between atoms: _273  and  _274
REMARK  116  A    between atoms: _277  and  _279
REMARK  117  A    between atoms: _279  and  _280
REMARK  118  A    between atoms: _279  and  _282
REMARK  119  A    between atoms: _282  and  _283
REMARK  120  A    between atoms: _283  and  _284
REMARK  121  A    between atoms: _284  and  _285
REMARK  122  A    between atoms: _294  and  _296
REMARK  123  A    between atoms: _296  and  _297
REMARK  124  A    between atoms: _296  and  _299
REMARK  125  A    between atoms: _299  and  _300
REMARK  126  A    between atoms: _303  and  _305
REMARK  127  A    between atoms: _305  and  _306
REMARK  128  A    between atoms: _310  and  _311
REMARK  129  A    between atoms: _316  and  _318
REMARK  130  A    between atoms: _318  and  _319
REMARK  131  A    between atoms: _322  and  _324
REMARK  132  A    between atoms: _324  and  _325
REMARK  133  A    between atoms: _324  and  _327
REMARK  134  A    between atoms: _327  and  _328
REMARK  135  A    between atoms: _338  and  _340
REMARK  136  A    between atoms: _340  and  _341
REMARK  137  A    between atoms: _340  and  _343
REMARK  138  A    between atoms: _343  and  _344
REMARK  139  A    between atoms: _347  and  _348
REMARK  140  A    between atoms: _353  and  _355
REMARK  141  A    between atoms: _355  and  _356
REMARK  142  A    between atoms: _355  and  _358
REMARK  143  A    between atoms: _358  and  _359
REMARK  144  A    between atoms: _359  and  _360
REMARK  145  A    between atoms: _360  and  _361
REMARK  146  A    between atoms: _370  and  _372
REMARK  147  A    between atoms: _372  and  _373
REMARK  148  A    between atoms: _372  and  _375
REMARK  149  A    between atoms: _375  and  _376
REMARK  150  A    between atoms: _379  and  _381
REMARK  151  A    between atoms: _381  and  _382
REMARK  152  A    between atoms: _381  and  _384
REMARK  153  A    between atoms: _384  and  _385
REMARK  154  A    between atoms: _388  and  _390
REMARK  155  A    between atoms: _390  and  _391
REMARK  156  A    between atoms: _390  and  _393
REMARK  157  A    between atoms: _393  and  _394
REMARK  158  A    between atoms: _397  and  _399
REMARK  159  A    between atoms: _399  and  _400
REMARK  160  A    between atoms: _399  and  _402
REMARK  161  A    between atoms: _402  and  _403
REMARK  162  A    between atoms: _406  and  _408
REMARK  163  A    between atoms: _408  and  _409
REMARK  164  A    between atoms: _408  and  _411
REMARK  165  A    between atoms: _411  and  _412
REMARK  166  A    between atoms: _415  and  _417
REMARK  167  A    between atoms: _417  and  _418
REMARK  168  A    between atoms: _417  and  _420
REMARK  169  A    between atoms: _420  and  _421
REMARK  170  A    between atoms: _424  and  _426
REMARK  171  A    between atoms: _426  and  _427
REMARK  172  A    between atoms: _430  and  _432
REMARK  173  A    between atoms: _432  and  _433
REMARK  174  A    between atoms: _432  and  _435
REMARK  175  A    between atoms: _435  and  _436
REMARK  176  A    between atoms: _439  and  _441
REMARK  177  A    between atoms: _441  and  _442
REMARK  178  A    between atoms: _441  and  _444
REMARK  179  A    between atoms: _444  and  _445
REMARK  180  A    between atoms: _448  and  _450
REMARK  181  A    between atoms: _450  and  _451
REMARK  182  A    between atoms: _450  and  _453
REMARK  183  A    between atoms: _453  and  _454
REMARK  184  A    between atoms: _457  and  _459
REMARK  185  A    between atoms: _459  and  _460
REMARK  186  A    between atoms: _459  and  _462
REMARK  187  A    between atoms: _462  and  _463
REMARK  188  A    between atoms: _463  and  _464
REMARK  189  A    between atoms: _464  and  _465
REMARK  190  A    between atoms: _465  and  _466
REMARK  191  A    between atoms: _470  and  _472
REMARK  192  A    between atoms: _472  and  _473
REMARK  193  A    between atoms: _472  and  _475
REMARK  194  A    between atoms: _475  and  _476
REMARK  195  A    between atoms: _479  and  _481
REMARK  196  A    between atoms: _481  and  _482
REMARK  197  A    between atoms: _481  and  _484
REMARK  198  A    between atoms: _484  and  _485
REMARK  199  A    between atoms: _488  and  _490
REMARK  200  A    between atoms: _490  and  _491
REMARK  201  A    between atoms: _490  and  _493
REMARK  202  A    between atoms: _493  and  _494
REMARK  203  A    between atoms: _498  and  _499
REMARK  204  A    between atoms: _504  and  _506
REMARK  205  A    between atoms: _506  and  _507
REMARK  206  A    between atoms: _506  and  _509
REMARK  207  A    between atoms: _509  and  _510
REMARK  208  A    between atoms: _515  and  _517
REMARK  209  A    between atoms: _517  and  _518
REMARK  210  A    between atoms: _517  and  _520
REMARK  211  A    between atoms: _520  and  _521
REMARK  212  A    between atoms: _521  and  _522
REMARK  213  A    between atoms: _522  and  _523
REMARK  214  A    between atoms: _523  and  _524
REMARK  215  A    between atoms: _528  and  _530
REMARK  216  A    between atoms: _530  and  _531
REMARK  217  A    between atoms: _530  and  _533
REMARK  218  A    between atoms: _533  and  _534
REMARK  219  A    between atoms: _534  and  _535
REMARK  220  A    between atoms: _538  and  _540
REMARK  221  A    between atoms: _540  and  _541
REMARK  222  A    between atoms: _540  and  _543
REMARK  223  A    between atoms: _543  and  _544
REMARK  224  A    between atoms: _547  and  _549
REMARK  225  A    between atoms: _549  and  _550
REMARK  226  A    between atoms: _549  and  _552
REMARK  227  A    between atoms: _552  and  _553
REMARK  228  A    between atoms: _553  and  _554
REMARK  229  A    between atoms: _554  and  _555
REMARK  230  A    between atoms: _564  and  _566
REMARK  231  A    between atoms: _566  and  _567
REMARK  232  A    between atoms: _566  and  _569
REMARK  233  A    between atoms: _569  and  _570
REMARK  234  A    between atoms: _572  and  _574
REMARK  235  A    between atoms: _574  and  _575
REMARK  236  A    between atoms: _574  and  _577
REMARK  237  A    between atoms: _577  and  _578
REMARK  238  A    between atoms: _584  and  _586
REMARK  239  A    between atoms: _586  and  _587
REMARK  240  A    between atoms: _590  and  _592
REMARK  241  A    between atoms: _592  and  _593
REMARK  242  A    between atoms: _592  and  _595
REMARK  243  A    between atoms: _595  and  _596
REMARK  244  A    between atoms: _596  and  _597
REMARK  245  A    between atoms: _600  and  _602
REMARK  246  A    between atoms: _602  and  _603
REMARK  247  A    between atoms: _602  and  _605
REMARK  248  A    between atoms: _605  and  _606
REMARK                            x       y       z     vdW  Elec       q    Type
REMARK                         _______ _______ _______ _____ _____    ______ ____
ROOT
ATOM      1  O   HOH     1       4.148  20.267  -6.019  0.00  0.00    +0.000 OA
ENDROOT
TORSDOF 0
REMARK  Name = ../refined-set-2016/4pzv/4pzv_pocket.pdb
REMARK  248 active torsions:
REMARK  status: ('A' for Active; 'I' for Inactive)
REMARK    1  A    between atoms: _1  and  _3
REMARK    2  A    between atoms: _3  and  _4
REMARK    3  A    between atoms: _3  and  _6
REMARK    4  A    between atoms: _6  and  _7
REMARK    5  A    between atoms: _10  and  _12
REMARK    6  A    between atoms: _12  and  _13
REMARK    7  A    between atoms: _12  and  _15
REMARK    8  A    between atoms: _15  and  _16
REMARK    9  A    between atoms: _19  and  _21
REMARK   10  A    between atoms: _21  and  _22
REMARK   11  A    between atoms: _24  and  _26
REMARK   12  A    between atoms: _26  and  _27
REMARK   13  A    between atoms: _26  and  _29
REMARK   14  A    between atoms: _29  and  _30
REMARK   15  A    between atoms: _33  and  _35
REMARK   16  A    between atoms: _35  and  _36
REMARK   17  A    between atoms: _38  and  _40
REMARK   18  A    between atoms: _40  and  _41
REMARK   19  A    between atoms: _40  and  _43
REMARK   20  A    between atoms: _43  and  _44
REMARK   21  A    between atoms: _47  and  _49
REMARK   22  A    between atoms: _49  and  _50
REMARK   23  A    between atoms: _49  and  _52
REMARK   24  A    between atoms: _52  and  _53
REMARK   25  A    between atoms: _58  and  _60
REMARK   26  A    between atoms: _60  and  _61
REMARK   27  A    between atoms: _60  and  _63
REMARK   28  A    between atoms: _63  and  _64
REMARK   29  A    between atoms: _69  and  _70
REMARK   30  A    between atoms: _72  and  _74
REMARK   31  A    between atoms: _74  and  _75
REMARK   32  A    between atoms: _74  and  _77
REMARK   33  A    between atoms: _77  and  _78
REMARK   34  A    between atoms: _80  and  _82
REMARK   35  A    between atoms: _82  and  _83
REMARK   36  A    between atoms: _82  and  _85
REMARK   37  A    between atoms: _85  and  _86
REMARK   38  A    between atoms: _88  and  _90
REMARK   39  A    between atoms: _90  and  _91
REMARK   40  A    between atoms: _90  and  _93
REMARK   41  A    between atoms: _93  and  _94
REMARK   42  A    between atoms: _94  and  _95
REMARK   43  A    between atoms: _95  and  _96
REMARK   44  A    between atoms: _96  and  _97
REMARK   45  A    between atoms: _101  and  _103
REMARK   46  A    between atoms: _103  and  _104
REMARK   47  A    between atoms: _107  and  _109
REMARK   48  A    between atoms: _109  and  _110
REMARK   49  A    between atoms: _109  and  _112
REMARK   50  A    between atoms: _115  and  _117
REMARK   51  A    between atoms: _117  and  _118
REMARK   52  A    between atoms: _117  and  _120
REMARK   53  A    between atoms: _120  and  _121
REMARK   54  A    between atoms: _124  and  _126
REMARK   55  A    between atoms: _126  and  _127
REMARK   56  A    between atoms: _126  and  _129
REMARK   57  A    between atoms: _129  and  _130
REMARK   58  A    between atoms: _130  and  _131
REMARK   59  A    between atoms: _131  and  _132
REMARK   60  A    between atoms: _132  and  _133
REMARK   61  A    between atoms: _137  and  _139
REMARK   62  A    between atoms: _139  and  _140
REMARK   63  A    between atoms: _139  and  _142
REMARK   64  A    between atoms: _142  and  _143
REMARK   65  A    between atoms: _153  and  _155
REMARK   66  A    between atoms: _155  and  _156
REMARK   67  A    between atoms: _155  and  _158
REMARK   68  A    between atoms: _158  and  _159
REMARK   69  A    between atoms: _162  and  _164
REMARK   70  A    between atoms: _164  and  _165
REMARK   71  A    between atoms: _164  and  _167
REMARK   72  A    between atoms: _167  and  _168
REMARK   73  A    between atoms: _168  and  _169
REMARK   74  A    between atoms: _169  and  _170
REMARK   75  A    between atoms: _179  and  _181
REMARK   76  A    between atoms: _181  and  _182
REMARK   77  A    between atoms: _181  and  _184
REMARK   78  A    between atoms: _184  and  _185
REMARK   79  A    between atoms: _191  and  _193
REMARK   80  A    between atoms: _193  and  _194
REMARK   81  A    between atoms: _193  and  _196
REMARK   82  A    between atoms: _196  and  _197
REMARK   83  A    between atoms: _200  and  _202
REMARK   84  A    between atoms: _202  and  _203
REMARK   85  A    between atoms: _202  and  _205
REMARK   86  A    between atoms: _205  and  _206
REMARK   87  A    between atoms: _211  and  _213
REMARK   88  A    between atoms: _213  and  _214
REMARK   89  A    between atoms: _213  and  _216
REMARK   90  A    between atoms: _216  and  _217
REMARK   91  A    between atoms: _221  and  _222
REMARK   92  A    between atoms: _227  and  _229
REMARK   93  A    between atoms: _229  and  _230
REMARK   94  A    between atoms: _229  and  _232
REMARK   95  A    between atoms: _232  and  _233
REMARK   96  A    between atoms: _236  and  _238
REMARK   97  A    between atoms: _238  and  _239
REMARK   98  A    between atoms: _238  and  _241
REMARK   99  A    between atoms: _241  and  _242
REMARK  100  A    between atoms: _245  and  _247
REMARK  101  A    between atoms: _247  and  _248
REMARK  102  A    between atoms: _247  and  _250
REMARK  103  A    between atoms: _250  and  _251
REMARK  104  A    between atoms: _254  and  _256
REMARK  105  A    between atoms: _256  and  _257
REMARK  106  A    between atoms: _256  and  _259
REMARK  107  A    between atoms: _259  and  _260
REMARK  108  A    between atoms: _260  and  _261
REMARK  109  A    between atoms: _261  and  _262
REMARK  110  A    between atoms: _262  and  _263
REMARK  111  A    between atoms: _267  and  _269
REMARK  112  A    between atoms: _269  and  _270
REMARK  113  A    between atoms: _269  and  _272
REMARK  114  A    between atoms: _272  and  _273
REMARK  115  A    between atoms: _273  and  _274
REMARK  116  A    between atoms: _277  and  _279
REMARK  117  A    between atoms: _279  and  _280
REMARK  118  A    between atoms: _279  and  _282
REMARK  119  A    between atoms: _282  and  _283
REMARK  120  A    between atoms: _283  and  _284
REMARK  121  A    between atoms: _284  and  _285
REMARK  122  A    between atoms: _294  and  _296
REMARK  123  A    between atoms: _296  and  _297
REMARK  124  A    between atoms: _296  and  _299
REMARK  125  A    between atoms: _299  and  _300
REMARK  126  A    between atoms: _303  and  _305
REMARK  127  A    between atoms: _305  and  _306
REMARK  128  A    between atoms: _310  and  _311
REMARK  129  A    between atoms: _316  and  _318
REMARK  130  A    between atoms: _318  and  _319
REMARK  131  A    between atoms: _322  and  _324
REMARK  132  A    between atoms: _324  and  _325
REMARK  133  A    between atoms: _324  and  _327
REMARK  134  A    between atoms: _327  and  _328
REMARK  135  A    between atoms: _338  and  _340
REMARK  136  A    between atoms: _340  and  _341
REMARK  137  A    between atoms: _340  and  _343
REMARK  138  A    between atoms: _343  and  _344
REMARK  139  A    between atoms: _347  and  _348
REMARK  140  A    between atoms: _353  and  _355
REMARK  141  A    between atoms: _355  and  _356
REMARK  142  A    between atoms: _355  and  _358
REMARK  143  A    between atoms: _358  and  _359
REMARK  144  A    between atoms: _359  and  _360
REMARK  145  A    between atoms: _360  and  _361
REMARK  146  A    between atoms: _370  and  _372
REMARK  147  A    between atoms: _372  and  _373
REMARK  148  A    between atoms: _372  and  _375
REMARK  149  A    between atoms: _375  and  _376
REMARK  150  A    between atoms: _379  and  _381
REMARK  151  A    between atoms: _381  and  _382
REMARK  152  A    between atoms: _381  and  _384
REMARK  153  A    between atoms: _384  and  _385
REMARK  154  A    between atoms: _388  and  _390
REMARK  155  A    between atoms: _390  and  _391
REMARK  156  A    between atoms: _390  and  _393
REMARK  157  A    between atoms: _393  and  _394
REMARK  158  A    between atoms: _397  and  _399
REMARK  159  A    between atoms: _399  and  _400
REMARK  160  A    between atoms: _399  and  _402
REMARK  161  A    between atoms: _402  and  _403
REMARK  162  A    between atoms: _406  and  _408
REMARK  163  A    between atoms: _408  and  _409
REMARK  164  A    between atoms: _408  and  _411
REMARK  165  A    between atoms: _411  and  _412
REMARK  166  A    between atoms: _415  and  _417
REMARK  167  A    between atoms: _417  and  _418
REMARK  168  A    between atoms: _417  and  _420
REMARK  169  A    between atoms: _420  and  _421
REMARK  170  A    between atoms: _424  and  _426
REMARK  171  A    between atoms: _426  and  _427
REMARK  172  A    between atoms: _430  and  _432
REMARK  173  A    between atoms: _432  and  _433
REMARK  174  A    between atoms: _432  and  _435
REMARK  175  A    between atoms: _435  and  _436
REMARK  176  A    between atoms: _439  and  _441
REMARK  177  A    between atoms: _441  and  _442
REMARK  178  A    between atoms: _441  and  _444
REMARK  179  A    between atoms: _444  and  _445
REMARK  180  A    between atoms: _448  and  _450
REMARK  181  A    between atoms: _450  and  _451
REMARK  182  A    between atoms: _450  and  _453
REMARK  183  A    between atoms: _453  and  _454
REMARK  184  A    between atoms: _457  and  _459
REMARK  185  A    between atoms: _459  and  _460
REMARK  186  A    between atoms: _459  and  _462
REMARK  187  A    between atoms: _462  and  _463
REMARK  188  A    between atoms: _463  and  _464
REMARK  189  A    between atoms: _464  and  _465
REMARK  190  A    between atoms: _465  and  _466
REMARK  191  A    between atoms: _470  and  _472
REMARK  192  A    between atoms: _472  and  _473
REMARK  193  A    between atoms: _472  and  _475
REMARK  194  A    between atoms: _475  and  _476
REMARK  195  A    between atoms: _479  and  _481
REMARK  196  A    between atoms: _481  and  _482
REMARK  197  A    between atoms: _481  and  _484
REMARK  198  A    between atoms: _484  and  _485
REMARK  199  A    between atoms: _488  and  _490
REMARK  200  A    between atoms: _490  and  _491
REMARK  201  A    between atoms: _490  and  _493
REMARK  202  A    between atoms: _493  and  _494
REMARK  203  A    between atoms: _498  and  _499
REMARK  204  A    between atoms: _504  and  _506
REMARK  205  A    between atoms: _506  and  _507
REMARK  206  A    between atoms: _506  and  _509
REMARK  207  A    between atoms: _509  and  _510
REMARK  208  A    between atoms: _515  and  _517
REMARK  209  A    between atoms: _517  and  _518
REMARK  210  A    between atoms: _517  and  _520
REMARK  211  A    between atoms: _520  and  _521
REMARK  212  A    between atoms: _521  and  _522
REMARK  213  A    between atoms: _522  and  _523
REMARK  214  A    between atoms: _523  and  _524
REMARK  215  A    between atoms: _528  and  _530
REMARK  216  A    between atoms: _530  and  _531
REMARK  217  A    between atoms: _530  and  _533
REMARK  218  A    between atoms: _533  and  _534
REMARK  219  A    between atoms: _534  and  _535
REMARK  220  A    between atoms: _538  and  _540
REMARK  221  A    between atoms: _540  and  _541
REMARK  222  A    between atoms: _540  and  _543
REMARK  223  A    between atoms: _543  and  _544
REMARK  224  A    between atoms: _547  and  _549
REMARK  225  A    between atoms: _549  and  _550
REMARK  226  A    between atoms: _549  and  _552
REMARK  227  A    between atoms: _552  and  _553
REMARK  228  A    between atoms: _553  and  _554
REMARK  229  A    between atoms: _554  and  _555
REMARK  230  A    between atoms: _564  and  _566
REMARK  231  A    between atoms: _566  and  _567
REMARK  232  A    between atoms: _566  and  _569
REMARK  233  A    between atoms: _569  and  _570
REMARK  234  A    between atoms: _572  and  _574
REMARK  235  A    between atoms: _574  and  _575
REMARK  236  A    between atoms: _574  and  _577
REMARK  237  A    between atoms: _577  and  _578
REMARK  238  A    between atoms: _584  and  _586
REMARK  239  A    between atoms: _586  and  _587
REMARK  240  A    between atoms: _590  and  _592
REMARK  241  A    between atoms: _592  and  _593
REMARK  242  A    between atoms: _592  and  _595
REMARK  243  A    between atoms: _595  and  _596
REMARK  244  A    between atoms: _596  and  _597
REMARK  245  A    between atoms: _600  and  _602
REMARK  246  A    between atoms: _602  and  _603
REMARK  247  A    between atoms: _602  and  _605
REMARK  248  A    between atoms: _605  and  _606
REMARK                            x       y       z     vdW  Elec       q    Type
REMARK                         _______ _______ _______ _____ _____    ______ ____
ROOT
ATOM      1  O   HOH     1      11.916  31.735  -6.379  0.00  0.00    +0.000 OA
ENDROOT
TORSDOF 0
REMARK  Name = ../refined-set-2016/4pzv/4pzv_pocket.pdb
REMARK  248 active torsions:
REMARK  status: ('A' for Active; 'I' for Inactive)
REMARK    1  A    between atoms: _1  and  _3
REMARK    2  A    between atoms: _3  and  _4
REMARK    3  A    between atoms: _3  and  _6
REMARK    4  A    between atoms: _6  and  _7
REMARK    5  A    between atoms: _10  and  _12
REMARK    6  A    between atoms: _12  and  _13
REMARK    7  A    between atoms: _12  and  _15
REMARK    8  A    between atoms: _15  and  _16
REMARK    9  A    between atoms: _19  and  _21
REMARK   10  A    between atoms: _21  and  _22
REMARK   11  A    between atoms: _24  and  _26
REMARK   12  A    between atoms: _26  and  _27
REMARK   13  A    between atoms: _26  and  _29
REMARK   14  A    between atoms: _29  and  _30
REMARK   15  A    between atoms: _33  and  _35
REMARK   16  A    between atoms: _35  and  _36
REMARK   17  A    between atoms: _38  and  _40
REMARK   18  A    between atoms: _40  and  _41
REMARK   19  A    between atoms: _40  and  _43
REMARK   20  A    between atoms: _43  and  _44
REMARK   21  A    between atoms: _47  and  _49
REMARK   22  A    between atoms: _49  and  _50
REMARK   23  A    between atoms: _49  and  _52
REMARK   24  A    between atoms: _52  and  _53
REMARK   25  A    between atoms: _58  and  _60
REMARK   26  A    between atoms: _60  and  _61
REMARK   27  A    between atoms: _60  and  _63
REMARK   28  A    between atoms: _63  and  _64
REMARK   29  A    between atoms: _69  and  _70
REMARK   30  A    between atoms: _72  and  _74
REMARK   31  A    between atoms: _74  and  _75
REMARK   32  A    between atoms: _74  and  _77
REMARK   33  A    between atoms: _77  and  _78
REMARK   34  A    between atoms: _80  and  _82
REMARK   35  A    between atoms: _82  and  _83
REMARK   36  A    between atoms: _82  and  _85
REMARK   37  A    between atoms: _85  and  _86
REMARK   38  A    between atoms: _88  and  _90
REMARK   39  A    between atoms: _90  and  _91
REMARK   40  A    between atoms: _90  and  _93
REMARK   41  A    between atoms: _93  and  _94
REMARK   42  A    between atoms: _94  and  _95
REMARK   43  A    between atoms: _95  and  _96
REMARK   44  A    between atoms: _96  and  _97
REMARK   45  A    between atoms: _101  and  _103
REMARK   46  A    between atoms: _103  and  _104
REMARK   47  A    between atoms: _107  and  _109
REMARK   48  A    between atoms: _109  and  _110
REMARK   49  A    between atoms: _109  and  _112
REMARK   50  A    between atoms: _115  and  _117
REMARK   51  A    between atoms: _117  and  _118
REMARK   52  A    between atoms: _117  and  _120
REMARK   53  A    between atoms: _120  and  _121
REMARK   54  A    between atoms: _124  and  _126
REMARK   55  A    between atoms: _126  and  _127
REMARK   56  A    between atoms: _126  and  _129
REMARK   57  A    between atoms: _129  and  _130
REMARK   58  A    between atoms: _130  and  _131
REMARK   59  A    between atoms: _131  and  _132
REMARK   60  A    between atoms: _132  and  _133
REMARK   61  A    between atoms: _137  and  _139
REMARK   62  A    between atoms: _139  and  _140
REMARK   63  A    between atoms: _139  and  _142
REMARK   64  A    between atoms: _142  and  _143
REMARK   65  A    between atoms: _153  and  _155
REMARK   66  A    between atoms: _155  and  _156
REMARK   67  A    between atoms: _155  and  _158
REMARK   68  A    between atoms: _158  and  _159
REMARK   69  A    between atoms: _162  and  _164
REMARK   70  A    between atoms: _164  and  _165
REMARK   71  A    between atoms: _164  and  _167
REMARK   72  A    between atoms: _167  and  _168
REMARK   73  A    between atoms: _168  and  _169
REMARK   74  A    between atoms: _169  and  _170
REMARK   75  A    between atoms: _179  and  _181
REMARK   76  A    between atoms: _181  and  _182
REMARK   77  A    between atoms: _181  and  _184
REMARK   78  A    between atoms: _184  and  _185
REMARK   79  A    between atoms: _191  and  _193
REMARK   80  A    between atoms: _193  and  _194
REMARK   81  A    between atoms: _193  and  _196
REMARK   82  A    between atoms: _196  and  _197
REMARK   83  A    between atoms: _200  and  _202
REMARK   84  A    between atoms: _202  and  _203
REMARK   85  A    between atoms: _202  and  _205
REMARK   86  A    between atoms: _205  and  _206
REMARK   87  A    between atoms: _211  and  _213
REMARK   88  A    between atoms: _213  and  _214
REMARK   89  A    between atoms: _213  and  _216
REMARK   90  A    between atoms: _216  and  _217
REMARK   91  A    between atoms: _221  and  _222
REMARK   92  A    between atoms: _227  and  _229
REMARK   93  A    between atoms: _229  and  _230
REMARK   94  A    between atoms: _229  and  _232
REMARK   95  A    between atoms: _232  and  _233
REMARK   96  A    between atoms: _236  and  _238
REMARK   97  A    between atoms: _238  and  _239
REMARK   98  A    between atoms: _238  and  _241
REMARK   99  A    between atoms: _241  and  _242
REMARK  100  A    between atoms: _245  and  _247
REMARK  101  A    between atoms: _247  and  _248
REMARK  102  A    between atoms: _247  and  _250
REMARK  103  A    between atoms: _250  and  _251
REMARK  104  A    between atoms: _254  and  _256
REMARK  105  A    between atoms: _256  and  _257
REMARK  106  A    between atoms: _256  and  _259
REMARK  107  A    between atoms: _259  and  _260
REMARK  108  A    between atoms: _260  and  _261
REMARK  109  A    between atoms: _261  and  _262
REMARK  110  A    between atoms: _262  and  _263
REMARK  111  A    between atoms: _267  and  _269
REMARK  112  A    between atoms: _269  and  _270
REMARK  113  A    between atoms: _269  and  _272
REMARK  114  A    between atoms: _272  and  _273
REMARK  115  A    between atoms: _273  and  _274
REMARK  116  A    between atoms: _277  and  _279
REMARK  117  A    between atoms: _279  and  _280
REMARK  118  A    between atoms: _279  and  _282
REMARK  119  A    between atoms: _282  and  _283
REMARK  120  A    between atoms: _283  and  _284
REMARK  121  A    between atoms: _284  and  _285
REMARK  122  A    between atoms: _294  and  _296
REMARK  123  A    between atoms: _296  and  _297
REMARK  124  A    between atoms: _296  and  _299
REMARK  125  A    between atoms: _299  and  _300
REMARK  126  A    between atoms: _303  and  _305
REMARK  127  A    between atoms: _305  and  _306
REMARK  128  A    between atoms: _310  and  _311
REMARK  129  A    between atoms: _316  and  _318
REMARK  130  A    between atoms: _318  and  _319
REMARK  131  A    between atoms: _322  and  _324
REMARK  132  A    between atoms: _324  and  _325
REMARK  133  A    between atoms: _324  and  _327
REMARK  134  A    between atoms: _327  and  _328
REMARK  135  A    between atoms: _338  and  _340
REMARK  136  A    between atoms: _340  and  _341
REMARK  137  A    between atoms: _340  and  _343
REMARK  138  A    between atoms: _343  and  _344
REMARK  139  A    between atoms: _347  and  _348
REMARK  140  A    between atoms: _353  and  _355
REMARK  141  A    between atoms: _355  and  _356
REMARK  142  A    between atoms: _355  and  _358
REMARK  143  A    between atoms: _358  and  _359
REMARK  144  A    between atoms: _359  and  _360
REMARK  145  A    between atoms: _360  and  _361
REMARK  146  A    between atoms: _370  and  _372
REMARK  147  A    between atoms: _372  and  _373
REMARK  148  A    between atoms: _372  and  _375
REMARK  149  A    between atoms: _375  and  _376
REMARK  150  A    between atoms: _379  and  _381
REMARK  151  A    between atoms: _381  and  _382
REMARK  152  A    between atoms: _381  and  _384
REMARK  153  A    between atoms: _384  and  _385
REMARK  154  A    between atoms: _388  and  _390
REMARK  155  A    between atoms: _390  and  _391
REMARK  156  A    between atoms: _390  and  _393
REMARK  157  A    between atoms: _393  and  _394
REMARK  158  A    between atoms: _397  and  _399
REMARK  159  A    between atoms: _399  and  _400
REMARK  160  A    between atoms: _399  and  _402
REMARK  161  A    between atoms: _402  and  _403
REMARK  162  A    between atoms: _406  and  _408
REMARK  163  A    between atoms: _408  and  _409
REMARK  164  A    between atoms: _408  and  _411
REMARK  165  A    between atoms: _411  and  _412
REMARK  166  A    between atoms: _415  and  _417
REMARK  167  A    between atoms: _417  and  _418
REMARK  168  A    between atoms: _417  and  _420
REMARK  169  A    between atoms: _420  and  _421
REMARK  170  A    between atoms: _424  and  _426
REMARK  171  A    between atoms: _426  and  _427
REMARK  172  A    between atoms: _430  and  _432
REMARK  173  A    between atoms: _432  and  _433
REMARK  174  A    between atoms: _432  and  _435
REMARK  175  A    between atoms: _435  and  _436
REMARK  176  A    between atoms: _439  and  _441
REMARK  177  A    between atoms: _441  and  _442
REMARK  178  A    between atoms: _441  and  _444
REMARK  179  A    between atoms: _444  and  _445
REMARK  180  A    between atoms: _448  and  _450
REMARK  181  A    between atoms: _450  and  _451
REMARK  182  A    between atoms: _450  and  _453
REMARK  183  A    between atoms: _453  and  _454
REMARK  184  A    between atoms: _457  and  _459
REMARK  185  A    between atoms: _459  and  _460
REMARK  186  A    between atoms: _459  and  _462
REMARK  187  A    between atoms: _462  and  _463
REMARK  188  A    between atoms: _463  and  _464
REMARK  189  A    between atoms: _464  and  _465
REMARK  190  A    between atoms: _465  and  _466
REMARK  191  A    between atoms: _470  and  _472
REMARK  192  A    between atoms: _472  and  _473
REMARK  193  A    between atoms: _472  and  _475
REMARK  194  A    between atoms: _475  and  _476
REMARK  195  A    between atoms: _479  and  _481
REMARK  196  A    between atoms: _481  and  _482
REMARK  197  A    between atoms: _481  and  _484
REMARK  198  A    between atoms: _484  and  _485
REMARK  199  A    between atoms: _488  and  _490
REMARK  200  A    between atoms: _490  and  _491
REMARK  201  A    between atoms: _490  and  _493
REMARK  202  A    between atoms: _493  and  _494
REMARK  203  A    between atoms: _498  and  _499
REMARK  204  A    between atoms: _504  and  _506
REMARK  205  A    between atoms: _506  and  _507
REMARK  206  A    between atoms: _506  and  _509
REMARK  207  A    between atoms: _509  and  _510
REMARK  208  A    between atoms: _515  and  _517
REMARK  209  A    between atoms: _517  and  _518
REMARK  210  A    between atoms: _517  and  _520
REMARK  211  A    between atoms: _520  and  _521
REMARK  212  A    between atoms: _521  and  _522
REMARK  213  A    between atoms: _522  and  _523
REMARK  214  A    between atoms: _523  and  _524
REMARK  215  A    between atoms: _528  and  _530
REMARK  216  A    between atoms: _530  and  _531
REMARK  217  A    between atoms: _530  and  _533
REMARK  218  A    between atoms: _533  and  _534
REMARK  219  A    between atoms: _534  and  _535
REMARK  220  A    between atoms: _538  and  _540
REMARK  221  A    between atoms: _540  and  _541
REMARK  222  A    between atoms: _540  and  _543
REMARK  223  A    between atoms: _543  and  _544
REMARK  224  A    between atoms: _547  and  _549
REMARK  225  A    between atoms: _549  and  _550
REMARK  226  A    between atoms: _549  and  _552
REMARK  227  A    between atoms: _552  and  _553
REMARK  228  A    between atoms: _553  and  _554
REMARK  229  A    between atoms: _554  and  _555
REMARK  230  A    between atoms: _564  and  _566
REMARK  231  A    between atoms: _566  and  _567
REMARK  232  A    between atoms: _566  and  _569
REMARK  233  A    between atoms: _569  and  _570
REMARK  234  A    between atoms: _572  and  _574
REMARK  235  A    between atoms: _574  and  _575
REMARK  236  A    between atoms: _574  and  _577
REMARK  237  A    between atoms: _577  and  _578
REMARK  238  A    between atoms: _584  and  _586
REMARK  239  A    between atoms: _586  and  _587
REMARK  240  A    between atoms: _590  and  _592
REMARK  241  A    between atoms: _592  and  _593
REMARK  242  A    between atoms: _592  and  _595
REMARK  243  A    between atoms: _595  and  _596
REMARK  244  A    between atoms: _596  and  _597
REMARK  245  A    between atoms: _600  and  _602
REMARK  246  A    between atoms: _602  and  _603
REMARK  247  A    between atoms: _602  and  _605
REMARK  248  A    between atoms: _605  and  _606
REMARK                            x       y       z     vdW  Elec       q    Type
REMARK                         _______ _______ _______ _____ _____    ______ ____
ROOT
ATOM      1  O   HOH     1      12.531  19.680 -10.101  0.00  0.00    +0.000 OA
ENDROOT
TORSDOF 0
REMARK  Name = ../refined-set-2016/4pzv/4pzv_pocket.pdb
REMARK  248 active torsions:
REMARK  status: ('A' for Active; 'I' for Inactive)
REMARK    1  A    between atoms: _1  and  _3
REMARK    2  A    between atoms: _3  and  _4
REMARK    3  A    between atoms: _3  and  _6
REMARK    4  A    between atoms: _6  and  _7
REMARK    5  A    between atoms: _10  and  _12
REMARK    6  A    between atoms: _12  and  _13
REMARK    7  A    between atoms: _12  and  _15
REMARK    8  A    between atoms: _15  and  _16
REMARK    9  A    between atoms: _19  and  _21
REMARK   10  A    between atoms: _21  and  _22
REMARK   11  A    between atoms: _24  and  _26
REMARK   12  A    between atoms: _26  and  _27
REMARK   13  A    between atoms: _26  and  _29
REMARK   14  A    between atoms: _29  and  _30
REMARK   15  A    between atoms: _33  and  _35
REMARK   16  A    between atoms: _35  and  _36
REMARK   17  A    between atoms: _38  and  _40
REMARK   18  A    between atoms: _40  and  _41
REMARK   19  A    between atoms: _40  and  _43
REMARK   20  A    between atoms: _43  and  _44
REMARK   21  A    between atoms: _47  and  _49
REMARK   22  A    between atoms: _49  and  _50
REMARK   23  A    between atoms: _49  and  _52
REMARK   24  A    between atoms: _52  and  _53
REMARK   25  A    between atoms: _58  and  _60
REMARK   26  A    between atoms: _60  and  _61
REMARK   27  A    between atoms: _60  and  _63
REMARK   28  A    between atoms: _63  and  _64
REMARK   29  A    between atoms: _69  and  _70
REMARK   30  A    between atoms: _72  and  _74
REMARK   31  A    between atoms: _74  and  _75
REMARK   32  A    between atoms: _74  and  _77
REMARK   33  A    between atoms: _77  and  _78
REMARK   34  A    between atoms: _80  and  _82
REMARK   35  A    between atoms: _82  and  _83
REMARK   36  A    between atoms: _82  and  _85
REMARK   37  A    between atoms: _85  and  _86
REMARK   38  A    between atoms: _88  and  _90
REMARK   39  A    between atoms: _90  and  _91
REMARK   40  A    between atoms: _90  and  _93
REMARK   41  A    between atoms: _93  and  _94
REMARK   42  A    between atoms: _94  and  _95
REMARK   43  A    between atoms: _95  and  _96
REMARK   44  A    between atoms: _96  and  _97
REMARK   45  A    between atoms: _101  and  _103
REMARK   46  A    between atoms: _103  and  _104
REMARK   47  A    between atoms: _107  and  _109
REMARK   48  A    between atoms: _109  and  _110
REMARK   49  A    between atoms: _109  and  _112
REMARK   50  A    between atoms: _115  and  _117
REMARK   51  A    between atoms: _117  and  _118
REMARK   52  A    between atoms: _117  and  _120
REMARK   53  A    between atoms: _120  and  _121
REMARK   54  A    between atoms: _124  and  _126
REMARK   55  A    between atoms: _126  and  _127
REMARK   56  A    between atoms: _126  and  _129
REMARK   57  A    between atoms: _129  and  _130
REMARK   58  A    between atoms: _130  and  _131
REMARK   59  A    between atoms: _131  and  _132
REMARK   60  A    between atoms: _132  and  _133
REMARK   61  A    between atoms: _137  and  _139
REMARK   62  A    between atoms: _139  and  _140
REMARK   63  A    between atoms: _139  and  _142
REMARK   64  A    between atoms: _142  and  _143
REMARK   65  A    between atoms: _153  and  _155
REMARK   66  A    between atoms: _155  and  _156
REMARK   67  A    between atoms: _155  and  _158
REMARK   68  A    between atoms: _158  and  _159
REMARK   69  A    between atoms: _162  and  _164
REMARK   70  A    between atoms: _164  and  _165
REMARK   71  A    between atoms: _164  and  _167
REMARK   72  A    between atoms: _167  and  _168
REMARK   73  A    between atoms: _168  and  _169
REMARK   74  A    between atoms: _169  and  _170
REMARK   75  A    between atoms: _179  and  _181
REMARK   76  A    between atoms: _181  and  _182
REMARK   77  A    between atoms: _181  and  _184
REMARK   78  A    between atoms: _184  and  _185
REMARK   79  A    between atoms: _191  and  _193
REMARK   80  A    between atoms: _193  and  _194
REMARK   81  A    between atoms: _193  and  _196
REMARK   82  A    between atoms: _196  and  _197
REMARK   83  A    between atoms: _200  and  _202
REMARK   84  A    between atoms: _202  and  _203
REMARK   85  A    between atoms: _202  and  _205
REMARK   86  A    between atoms: _205  and  _206
REMARK   87  A    between atoms: _211  and  _213
REMARK   88  A    between atoms: _213  and  _214
REMARK   89  A    between atoms: _213  and  _216
REMARK   90  A    between atoms: _216  and  _217
REMARK   91  A    between atoms: _221  and  _222
REMARK   92  A    between atoms: _227  and  _229
REMARK   93  A    between atoms: _229  and  _230
REMARK   94  A    between atoms: _229  and  _232
REMARK   95  A    between atoms: _232  and  _233
REMARK   96  A    between atoms: _236  and  _238
REMARK   97  A    between atoms: _238  and  _239
REMARK   98  A    between atoms: _238  and  _241
REMARK   99  A    between atoms: _241  and  _242
REMARK  100  A    between atoms: _245  and  _247
REMARK  101  A    between atoms: _247  and  _248
REMARK  102  A    between atoms: _247  and  _250
REMARK  103  A    between atoms: _250  and  _251
REMARK  104  A    between atoms: _254  and  _256
REMARK  105  A    between atoms: _256  and  _257
REMARK  106  A    between atoms: _256  and  _259
REMARK  107  A    between atoms: _259  and  _260
REMARK  108  A    between atoms: _260  and  _261
REMARK  109  A    between atoms: _261  and  _262
REMARK  110  A    between atoms: _262  and  _263
REMARK  111  A    between atoms: _267  and  _269
REMARK  112  A    between atoms: _269  and  _270
REMARK  113  A    between atoms: _269  and  _272
REMARK  114  A    between atoms: _272  and  _273
REMARK  115  A    between atoms: _273  and  _274
REMARK  116  A    between atoms: _277  and  _279
REMARK  117  A    between atoms: _279  and  _280
REMARK  118  A    between atoms: _279  and  _282
REMARK  119  A    between atoms: _282  and  _283
REMARK  120  A    between atoms: _283  and  _284
REMARK  121  A    between atoms: _284  and  _285
REMARK  122  A    between atoms: _294  and  _296
REMARK  123  A    between atoms: _296  and  _297
REMARK  124  A    between atoms: _296  and  _299
REMARK  125  A    between atoms: _299  and  _300
REMARK  126  A    between atoms: _303  and  _305
REMARK  127  A    between atoms: _305  and  _306
REMARK  128  A    between atoms: _310  and  _311
REMARK  129  A    between atoms: _316  and  _318
REMARK  130  A    between atoms: _318  and  _319
REMARK  131  A    between atoms: _322  and  _324
REMARK  132  A    between atoms: _324  and  _325
REMARK  133  A    between atoms: _324  and  _327
REMARK  134  A    between atoms: _327  and  _328
REMARK  135  A    between atoms: _338  and  _340
REMARK  136  A    between atoms: _340  and  _341
REMARK  137  A    between atoms: _340  and  _343
REMARK  138  A    between atoms: _343  and  _344
REMARK  139  A    between atoms: _347  and  _348
REMARK  140  A    between atoms: _353  and  _355
REMARK  141  A    between atoms: _355  and  _356
REMARK  142  A    between atoms: _355  and  _358
REMARK  143  A    between atoms: _358  and  _359
REMARK  144  A    between atoms: _359  and  _360
REMARK  145  A    between atoms: _360  and  _361
REMARK  146  A    between atoms: _370  and  _372
REMARK  147  A    between atoms: _372  and  _373
REMARK  148  A    between atoms: _372  and  _375
REMARK  149  A    between atoms: _375  and  _376
REMARK  150  A    between atoms: _379  and  _381
REMARK  151  A    between atoms: _381  and  _382
REMARK  152  A    between atoms: _381  and  _384
REMARK  153  A    between atoms: _384  and  _385
REMARK  154  A    between atoms: _388  and  _390
REMARK  155  A    between atoms: _390  and  _391
REMARK  156  A    between atoms: _390  and  _393
REMARK  157  A    between atoms: _393  and  _394
REMARK  158  A    between atoms: _397  and  _399
REMARK  159  A    between atoms: _399  and  _400
REMARK  160  A    between atoms: _399  and  _402
REMARK  161  A    between atoms: _402  and  _403
REMARK  162  A    between atoms: _406  and  _408
REMARK  163  A    between atoms: _408  and  _409
REMARK  164  A    between atoms: _408  and  _411
REMARK  165  A    between atoms: _411  and  _412
REMARK  166  A    between atoms: _415  and  _417
REMARK  167  A    between atoms: _417  and  _418
REMARK  168  A    between atoms: _417  and  _420
REMARK  169  A    between atoms: _420  and  _421
REMARK  170  A    between atoms: _424  and  _426
REMARK  171  A    between atoms: _426  and  _427
REMARK  172  A    between atoms: _430  and  _432
REMARK  173  A    between atoms: _432  and  _433
REMARK  174  A    between atoms: _432  and  _435
REMARK  175  A    between atoms: _435  and  _436
REMARK  176  A    between atoms: _439  and  _441
REMARK  177  A    between atoms: _441  and  _442
REMARK  178  A    between atoms: _441  and  _444
REMARK  179  A    between atoms: _444  and  _445
REMARK  180  A    between atoms: _448  and  _450
REMARK  181  A    between atoms: _450  and  _451
REMARK  182  A    between atoms: _450  and  _453
REMARK  183  A    between atoms: _453  and  _454
REMARK  184  A    between atoms: _457  and  _459
REMARK  185  A    between atoms: _459  and  _460
REMARK  186  A    between atoms: _459  and  _462
REMARK  187  A    between atoms: _462  and  _463
REMARK  188  A    between atoms: _463  and  _464
REMARK  189  A    between atoms: _464  and  _465
REMARK  190  A    between atoms: _465  and  _466
REMARK  191  A    between atoms: _470  and  _472
REMARK  192  A    between atoms: _472  and  _473
REMARK  193  A    between atoms: _472  and  _475
REMARK  194  A    between atoms: _475  and  _476
REMARK  195  A    between atoms: _479  and  _481
REMARK  196  A    between atoms: _481  and  _482
REMARK  197  A    between atoms: _481  and  _484
REMARK  198  A    between atoms: _484  and  _485
REMARK  199  A    between atoms: _488  and  _490
REMARK  200  A    between atoms: _490  and  _491
REMARK  201  A    between atoms: _490  and  _493
REMARK  202  A    between atoms: _493  and  _494
REMARK  203  A    between atoms: _498  and  _499
REMARK  204  A    between atoms: _504  and  _506
REMARK  205  A    between atoms: _506  and  _507
REMARK  206  A    between atoms: _506  and  _509
REMARK  207  A    between atoms: _509  and  _510
REMARK  208  A    between atoms: _515  and  _517
REMARK  209  A    between atoms: _517  and  _518
REMARK  210  A    between atoms: _517  and  _520
REMARK  211  A    between atoms: _520  and  _521
REMARK  212  A    between atoms: _521  and  _522
REMARK  213  A    between atoms: _522  and  _523
REMARK  214  A    between atoms: _523  and  _524
REMARK  215  A    between atoms: _528  and  _530
REMARK  216  A    between atoms: _530  and  _531
REMARK  217  A    between atoms: _530  and  _533
REMARK  218  A    between atoms: _533  and  _534
REMARK  219  A    between atoms: _534  and  _535
REMARK  220  A    between atoms: _538  and  _540
REMARK  221  A    between atoms: _540  and  _541
REMARK  222  A    between atoms: _540  and  _543
REMARK  223  A    between atoms: _543  and  _544
REMARK  224  A    between atoms: _547  and  _549
REMARK  225  A    between atoms: _549  and  _550
REMARK  226  A    between atoms: _549  and  _552
REMARK  227  A    between atoms: _552  and  _553
REMARK  228  A    between atoms: _553  and  _554
REMARK  229  A    between atoms: _554  and  _555
REMARK  230  A    between atoms: _564  and  _566
REMARK  231  A    between atoms: _566  and  _567
REMARK  232  A    between atoms: _566  and  _569
REMARK  233  A    between atoms: _569  and  _570
REMARK  234  A    between atoms: _572  and  _574
REMARK  235  A    between atoms: _574  and  _575
REMARK  236  A    between atoms: _574  and  _577
REMARK  237  A    between atoms: _577  and  _578
REMARK  238  A    between atoms: _584  and  _586
REMARK  239  A    between atoms: _586  and  _587
REMARK  240  A    between atoms: _590  and  _592
REMARK  241  A    between atoms: _592  and  _593
REMARK  242  A    between atoms: _592  and  _595
REMARK  243  A    between atoms: _595  and  _596
REMARK  244  A    between atoms: _596  and  _597
REMARK  245  A    between atoms: _600  and  _602
REMARK  246  A    between atoms: _602  and  _603
REMARK  247  A    between atoms: _602  and  _605
REMARK  248  A    between atoms: _605  and  _606
REMARK                            x       y       z     vdW  Elec       q    Type
REMARK                         _______ _______ _______ _____ _____    ______ ____
ROOT
ATOM      1  O   HOH     1      16.981  26.648  -5.338  0.00  0.00    +0.000 OA
ENDROOT
TORSDOF 0
REMARK  Name = ../refined-set-2016/4pzv/4pzv_pocket.pdb
REMARK  248 active torsions:
REMARK  status: ('A' for Active; 'I' for Inactive)
REMARK    1  A    between atoms: _1  and  _3
REMARK    2  A    between atoms: _3  and  _4
REMARK    3  A    between atoms: _3  and  _6
REMARK    4  A    between atoms: _6  and  _7
REMARK    5  A    between atoms: _10  and  _12
REMARK    6  A    between atoms: _12  and  _13
REMARK    7  A    between atoms: _12  and  _15
REMARK    8  A    between atoms: _15  and  _16
REMARK    9  A    between atoms: _19  and  _21
REMARK   10  A    between atoms: _21  and  _22
REMARK   11  A    between atoms: _24  and  _26
REMARK   12  A    between atoms: _26  and  _27
REMARK   13  A    between atoms: _26  and  _29
REMARK   14  A    between atoms: _29  and  _30
REMARK   15  A    between atoms: _33  and  _35
REMARK   16  A    between atoms: _35  and  _36
REMARK   17  A    between atoms: _38  and  _40
REMARK   18  A    between atoms: _40  and  _41
REMARK   19  A    between atoms: _40  and  _43
REMARK   20  A    between atoms: _43  and  _44
REMARK   21  A    between atoms: _47  and  _49
REMARK   22  A    between atoms: _49  and  _50
REMARK   23  A    between atoms: _49  and  _52
REMARK   24  A    between atoms: _52  and  _53
REMARK   25  A    between atoms: _58  and  _60
REMARK   26  A    between atoms: _60  and  _61
REMARK   27  A    between atoms: _60  and  _63
REMARK   28  A    between atoms: _63  and  _64
REMARK   29  A    between atoms: _69  and  _70
REMARK   30  A    between atoms: _72  and  _74
REMARK   31  A    between atoms: _74  and  _75
REMARK   32  A    between atoms: _74  and  _77
REMARK   33  A    between atoms: _77  and  _78
REMARK   34  A    between atoms: _80  and  _82
REMARK   35  A    between atoms: _82  and  _83
REMARK   36  A    between atoms: _82  and  _85
REMARK   37  A    between atoms: _85  and  _86
REMARK   38  A    between atoms: _88  and  _90
REMARK   39  A    between atoms: _90  and  _91
REMARK   40  A    between atoms: _90  and  _93
REMARK   41  A    between atoms: _93  and  _94
REMARK   42  A    between atoms: _94  and  _95
REMARK   43  A    between atoms: _95  and  _96
REMARK   44  A    between atoms: _96  and  _97
REMARK   45  A    between atoms: _101  and  _103
REMARK   46  A    between atoms: _103  and  _104
REMARK   47  A    between atoms: _107  and  _109
REMARK   48  A    between atoms: _109  and  _110
REMARK   49  A    between atoms: _109  and  _112
REMARK   50  A    between atoms: _115  and  _117
REMARK   51  A    between atoms: _117  and  _118
REMARK   52  A    between atoms: _117  and  _120
REMARK   53  A    between atoms: _120  and  _121
REMARK   54  A    between atoms: _124  and  _126
REMARK   55  A    between atoms: _126  and  _127
REMARK   56  A    between atoms: _126  and  _129
REMARK   57  A    between atoms: _129  and  _130
REMARK   58  A    between atoms: _130  and  _131
REMARK   59  A    between atoms: _131  and  _132
REMARK   60  A    between atoms: _132  and  _133
REMARK   61  A    between atoms: _137  and  _139
REMARK   62  A    between atoms: _139  and  _140
REMARK   63  A    between atoms: _139  and  _142
REMARK   64  A    between atoms: _142  and  _143
REMARK   65  A    between atoms: _153  and  _155
REMARK   66  A    between atoms: _155  and  _156
REMARK   67  A    between atoms: _155  and  _158
REMARK   68  A    between atoms: _158  and  _159
REMARK   69  A    between atoms: _162  and  _164
REMARK   70  A    between atoms: _164  and  _165
REMARK   71  A    between atoms: _164  and  _167
REMARK   72  A    between atoms: _167  and  _168
REMARK   73  A    between atoms: _168  and  _169
REMARK   74  A    between atoms: _169  and  _170
REMARK   75  A    between atoms: _179  and  _181
REMARK   76  A    between atoms: _181  and  _182
REMARK   77  A    between atoms: _181  and  _184
REMARK   78  A    between atoms: _184  and  _185
REMARK   79  A    between atoms: _191  and  _193
REMARK   80  A    between atoms: _193  and  _194
REMARK   81  A    between atoms: _193  and  _196
REMARK   82  A    between atoms: _196  and  _197
REMARK   83  A    between atoms: _200  and  _202
REMARK   84  A    between atoms: _202  and  _203
REMARK   85  A    between atoms: _202  and  _205
REMARK   86  A    between atoms: _205  and  _206
REMARK   87  A    between atoms: _211  and  _213
REMARK   88  A    between atoms: _213  and  _214
REMARK   89  A    between atoms: _213  and  _216
REMARK   90  A    between atoms: _216  and  _217
REMARK   91  A    between atoms: _221  and  _222
REMARK   92  A    between atoms: _227  and  _229
REMARK   93  A    between atoms: _229  and  _230
REMARK   94  A    between atoms: _229  and  _232
REMARK   95  A    between atoms: _232  and  _233
REMARK   96  A    between atoms: _236  and  _238
REMARK   97  A    between atoms: _238  and  _239
REMARK   98  A    between atoms: _238  and  _241
REMARK   99  A    between atoms: _241  and  _242
REMARK  100  A    between atoms: _245  and  _247
REMARK  101  A    between atoms: _247  and  _248
REMARK  102  A    between atoms: _247  and  _250
REMARK  103  A    between atoms: _250  and  _251
REMARK  104  A    between atoms: _254  and  _256
REMARK  105  A    between atoms: _256  and  _257
REMARK  106  A    between atoms: _256  and  _259
REMARK  107  A    between atoms: _259  and  _260
REMARK  108  A    between atoms: _260  and  _261
REMARK  109  A    between atoms: _261  and  _262
REMARK  110  A    between atoms: _262  and  _263
REMARK  111  A    between atoms: _267  and  _269
REMARK  112  A    between atoms: _269  and  _270
REMARK  113  A    between atoms: _269  and  _272
REMARK  114  A    between atoms: _272  and  _273
REMARK  115  A    between atoms: _273  and  _274
REMARK  116  A    between atoms: _277  and  _279
REMARK  117  A    between atoms: _279  and  _280
REMARK  118  A    between atoms: _279  and  _282
REMARK  119  A    between atoms: _282  and  _283
REMARK  120  A    between atoms: _283  and  _284
REMARK  121  A    between atoms: _284  and  _285
REMARK  122  A    between atoms: _294  and  _296
REMARK  123  A    between atoms: _296  and  _297
REMARK  124  A    between atoms: _296  and  _299
REMARK  125  A    between atoms: _299  and  _300
REMARK  126  A    between atoms: _303  and  _305
REMARK  127  A    between atoms: _305  and  _306
REMARK  128  A    between atoms: _310  and  _311
REMARK  129  A    between atoms: _316  and  _318
REMARK  130  A    between atoms: _318  and  _319
REMARK  131  A    between atoms: _322  and  _324
REMARK  132  A    between atoms: _324  and  _325
REMARK  133  A    between atoms: _324  and  _327
REMARK  134  A    between atoms: _327  and  _328
REMARK  135  A    between atoms: _338  and  _340
REMARK  136  A    between atoms: _340  and  _341
REMARK  137  A    between atoms: _340  and  _343
REMARK  138  A    between atoms: _343  and  _344
REMARK  139  A    between atoms: _347  and  _348
REMARK  140  A    between atoms: _353  and  _355
REMARK  141  A    between atoms: _355  and  _356
REMARK  142  A    between atoms: _355  and  _358
REMARK  143  A    between atoms: _358  and  _359
REMARK  144  A    between atoms: _359  and  _360
REMARK  145  A    between atoms: _360  and  _361
REMARK  146  A    between atoms: _370  and  _372
REMARK  147  A    between atoms: _372  and  _373
REMARK  148  A    between atoms: _372  and  _375
REMARK  149  A    between atoms: _375  and  _376
REMARK  150  A    between atoms: _379  and  _381
REMARK  151  A    between atoms: _381  and  _382
REMARK  152  A    between atoms: _381  and  _384
REMARK  153  A    between atoms: _384  and  _385
REMARK  154  A    between atoms: _388  and  _390
REMARK  155  A    between atoms: _390  and  _391
REMARK  156  A    between atoms: _390  and  _393
REMARK  157  A    between atoms: _393  and  _394
REMARK  158  A    between atoms: _397  and  _399
REMARK  159  A    between atoms: _399  and  _400
REMARK  160  A    between atoms: _399  and  _402
REMARK  161  A    between atoms: _402  and  _403
REMARK  162  A    between atoms: _406  and  _408
REMARK  163  A    between atoms: _408  and  _409
REMARK  164  A    between atoms: _408  and  _411
REMARK  165  A    between atoms: _411  and  _412
REMARK  166  A    between atoms: _415  and  _417
REMARK  167  A    between atoms: _417  and  _418
REMARK  168  A    between atoms: _417  and  _420
REMARK  169  A    between atoms: _420  and  _421
REMARK  170  A    between atoms: _424  and  _426
REMARK  171  A    between atoms: _426  and  _427
REMARK  172  A    between atoms: _430  and  _432
REMARK  173  A    between atoms: _432  and  _433
REMARK  174  A    between atoms: _432  and  _435
REMARK  175  A    between atoms: _435  and  _436
REMARK  176  A    between atoms: _439  and  _441
REMARK  177  A    between atoms: _441  and  _442
REMARK  178  A    between atoms: _441  and  _444
REMARK  179  A    between atoms: _444  and  _445
REMARK  180  A    between atoms: _448  and  _450
REMARK  181  A    between atoms: _450  and  _451
REMARK  182  A    between atoms: _450  and  _453
REMARK  183  A    between atoms: _453  and  _454
REMARK  184  A    between atoms: _457  and  _459
REMARK  185  A    between atoms: _459  and  _460
REMARK  186  A    between atoms: _459  and  _462
REMARK  187  A    between atoms: _462  and  _463
REMARK  188  A    between atoms: _463  and  _464
REMARK  189  A    between atoms: _464  and  _465
REMARK  190  A    between atoms: _465  and  _466
REMARK  191  A    between atoms: _470  and  _472
REMARK  192  A    between atoms: _472  and  _473
REMARK  193  A    between atoms: _472  and  _475
REMARK  194  A    between atoms: _475  and  _476
REMARK  195  A    between atoms: _479  and  _481
REMARK  196  A    between atoms: _481  and  _482
REMARK  197  A    between atoms: _481  and  _484
REMARK  198  A    between atoms: _484  and  _485
REMARK  199  A    between atoms: _488  and  _490
REMARK  200  A    between atoms: _490  and  _491
REMARK  201  A    between atoms: _490  and  _493
REMARK  202  A    between atoms: _493  and  _494
REMARK  203  A    between atoms: _498  and  _499
REMARK  204  A    between atoms: _504  and  _506
REMARK  205  A    between atoms: _506  and  _507
REMARK  206  A    between atoms: _506  and  _509
REMARK  207  A    between atoms: _509  and  _510
REMARK  208  A    between atoms: _515  and  _517
REMARK  209  A    between atoms: _517  and  _518
REMARK  210  A    between atoms: _517  and  _520
REMARK  211  A    between atoms: _520  and  _521
REMARK  212  A    between atoms: _521  and  _522
REMARK  213  A    between atoms: _522  and  _523
REMARK  214  A    between atoms: _523  and  _524
REMARK  215  A    between atoms: _528  and  _530
REMARK  216  A    between atoms: _530  and  _531
REMARK  217  A    between atoms: _530  and  _533
REMARK  218  A    between atoms: _533  and  _534
REMARK  219  A    between atoms: _534  and  _535
REMARK  220  A    between atoms: _538  and  _540
REMARK  221  A    between atoms: _540  and  _541
REMARK  222  A    between atoms: _540  and  _543
REMARK  223  A    between atoms: _543  and  _544
REMARK  224  A    between atoms: _547  and  _549
REMARK  225  A    between atoms: _549  and  _550
REMARK  226  A    between atoms: _549  and  _552
REMARK  227  A    between atoms: _552  and  _553
REMARK  228  A    between atoms: _553  and  _554
REMARK  229  A    between atoms: _554  and  _555
REMARK  230  A    between atoms: _564  and  _566
REMARK  231  A    between atoms: _566  and  _567
REMARK  232  A    between atoms: _566  and  _569
REMARK  233  A    between atoms: _569  and  _570
REMARK  234  A    between atoms: _572  and  _574
REMARK  235  A    between atoms: _574  and  _575
REMARK  236  A    between atoms: _574  and  _577
REMARK  237  A    between atoms: _577  and  _578
REMARK  238  A    between atoms: _584  and  _586
REMARK  239  A    between atoms: _586  and  _587
REMARK  240  A    between atoms: _590  and  _592
REMARK  241  A    between atoms: _592  and  _593
REMARK  242  A    between atoms: _592  and  _595
REMARK  243  A    between atoms: _595  and  _596
REMARK  244  A    between atoms: _596  and  _597
REMARK  245  A    between atoms: _600  and  _602
REMARK  246  A    between atoms: _602  and  _603
REMARK  247  A    between atoms: _602  and  _605
REMARK  248  A    between atoms: _605  and  _606
REMARK                            x       y       z     vdW  Elec       q    Type
REMARK                         _______ _______ _______ _____ _____    ______ ____
ROOT
ATOM      1  O   HOH     1      11.994  19.022 -12.687  0.00  0.00    +0.000 OA
ENDROOT
TORSDOF 0
REMARK  Name = ../refined-set-2016/4pzv/4pzv_pocket.pdb
REMARK  248 active torsions:
REMARK  status: ('A' for Active; 'I' for Inactive)
REMARK    1  A    between atoms: _1  and  _3
REMARK    2  A    between atoms: _3  and  _4
REMARK    3  A    between atoms: _3  and  _6
REMARK    4  A    between atoms: _6  and  _7
REMARK    5  A    between atoms: _10  and  _12
REMARK    6  A    between atoms: _12  and  _13
REMARK    7  A    between atoms: _12  and  _15
REMARK    8  A    between atoms: _15  and  _16
REMARK    9  A    between atoms: _19  and  _21
REMARK   10  A    between atoms: _21  and  _22
REMARK   11  A    between atoms: _24  and  _26
REMARK   12  A    between atoms: _26  and  _27
REMARK   13  A    between atoms: _26  and  _29
REMARK   14  A    between atoms: _29  and  _30
REMARK   15  A    between atoms: _33  and  _35
REMARK   16  A    between atoms: _35  and  _36
REMARK   17  A    between atoms: _38  and  _40
REMARK   18  A    between atoms: _40  and  _41
REMARK   19  A    between atoms: _40  and  _43
REMARK   20  A    between atoms: _43  and  _44
REMARK   21  A    between atoms: _47  and  _49
REMARK   22  A    between atoms: _49  and  _50
REMARK   23  A    between atoms: _49  and  _52
REMARK   24  A    between atoms: _52  and  _53
REMARK   25  A    between atoms: _58  and  _60
REMARK   26  A    between atoms: _60  and  _61
REMARK   27  A    between atoms: _60  and  _63
REMARK   28  A    between atoms: _63  and  _64
REMARK   29  A    between atoms: _69  and  _70
REMARK   30  A    between atoms: _72  and  _74
REMARK   31  A    between atoms: _74  and  _75
REMARK   32  A    between atoms: _74  and  _77
REMARK   33  A    between atoms: _77  and  _78
REMARK   34  A    between atoms: _80  and  _82
REMARK   35  A    between atoms: _82  and  _83
REMARK   36  A    between atoms: _82  and  _85
REMARK   37  A    between atoms: _85  and  _86
REMARK   38  A    between atoms: _88  and  _90
REMARK   39  A    between atoms: _90  and  _91
REMARK   40  A    between atoms: _90  and  _93
REMARK   41  A    between atoms: _93  and  _94
REMARK   42  A    between atoms: _94  and  _95
REMARK   43  A    between atoms: _95  and  _96
REMARK   44  A    between atoms: _96  and  _97
REMARK   45  A    between atoms: _101  and  _103
REMARK   46  A    between atoms: _103  and  _104
REMARK   47  A    between atoms: _107  and  _109
REMARK   48  A    between atoms: _109  and  _110
REMARK   49  A    between atoms: _109  and  _112
REMARK   50  A    between atoms: _115  and  _117
REMARK   51  A    between atoms: _117  and  _118
REMARK   52  A    between atoms: _117  and  _120
REMARK   53  A    between atoms: _120  and  _121
REMARK   54  A    between atoms: _124  and  _126
REMARK   55  A    between atoms: _126  and  _127
REMARK   56  A    between atoms: _126  and  _129
REMARK   57  A    between atoms: _129  and  _130
REMARK   58  A    between atoms: _130  and  _131
REMARK   59  A    between atoms: _131  and  _132
REMARK   60  A    between atoms: _132  and  _133
REMARK   61  A    between atoms: _137  and  _139
REMARK   62  A    between atoms: _139  and  _140
REMARK   63  A    between atoms: _139  and  _142
REMARK   64  A    between atoms: _142  and  _143
REMARK   65  A    between atoms: _153  and  _155
REMARK   66  A    between atoms: _155  and  _156
REMARK   67  A    between atoms: _155  and  _158
REMARK   68  A    between atoms: _158  and  _159
REMARK   69  A    between atoms: _162  and  _164
REMARK   70  A    between atoms: _164  and  _165
REMARK   71  A    between atoms: _164  and  _167
REMARK   72  A    between atoms: _167  and  _168
REMARK   73  A    between atoms: _168  and  _169
REMARK   74  A    between atoms: _169  and  _170
REMARK   75  A    between atoms: _179  and  _181
REMARK   76  A    between atoms: _181  and  _182
REMARK   77  A    between atoms: _181  and  _184
REMARK   78  A    between atoms: _184  and  _185
REMARK   79  A    between atoms: _191  and  _193
REMARK   80  A    between atoms: _193  and  _194
REMARK   81  A    between atoms: _193  and  _196
REMARK   82  A    between atoms: _196  and  _197
REMARK   83  A    between atoms: _200  and  _202
REMARK   84  A    between atoms: _202  and  _203
REMARK   85  A    between atoms: _202  and  _205
REMARK   86  A    between atoms: _205  and  _206
REMARK   87  A    between atoms: _211  and  _213
REMARK   88  A    between atoms: _213  and  _214
REMARK   89  A    between atoms: _213  and  _216
REMARK   90  A    between atoms: _216  and  _217
REMARK   91  A    between atoms: _221  and  _222
REMARK   92  A    between atoms: _227  and  _229
REMARK   93  A    between atoms: _229  and  _230
REMARK   94  A    between atoms: _229  and  _232
REMARK   95  A    between atoms: _232  and  _233
REMARK   96  A    between atoms: _236  and  _238
REMARK   97  A    between atoms: _238  and  _239
REMARK   98  A    between atoms: _238  and  _241
REMARK   99  A    between atoms: _241  and  _242
REMARK  100  A    between atoms: _245  and  _247
REMARK  101  A    between atoms: _247  and  _248
REMARK  102  A    between atoms: _247  and  _250
REMARK  103  A    between atoms: _250  and  _251
REMARK  104  A    between atoms: _254  and  _256
REMARK  105  A    between atoms: _256  and  _257
REMARK  106  A    between atoms: _256  and  _259
REMARK  107  A    between atoms: _259  and  _260
REMARK  108  A    between atoms: _260  and  _261
REMARK  109  A    between atoms: _261  and  _262
REMARK  110  A    between atoms: _262  and  _263
REMARK  111  A    between atoms: _267  and  _269
REMARK  112  A    between atoms: _269  and  _270
REMARK  113  A    between atoms: _269  and  _272
REMARK  114  A    between atoms: _272  and  _273
REMARK  115  A    between atoms: _273  and  _274
REMARK  116  A    between atoms: _277  and  _279
REMARK  117  A    between atoms: _279  and  _280
REMARK  118  A    between atoms: _279  and  _282
REMARK  119  A    between atoms: _282  and  _283
REMARK  120  A    between atoms: _283  and  _284
REMARK  121  A    between atoms: _284  and  _285
REMARK  122  A    between atoms: _294  and  _296
REMARK  123  A    between atoms: _296  and  _297
REMARK  124  A    between atoms: _296  and  _299
REMARK  125  A    between atoms: _299  and  _300
REMARK  126  A    between atoms: _303  and  _305
REMARK  127  A    between atoms: _305  and  _306
REMARK  128  A    between atoms: _310  and  _311
REMARK  129  A    between atoms: _316  and  _318
REMARK  130  A    between atoms: _318  and  _319
REMARK  131  A    between atoms: _322  and  _324
REMARK  132  A    between atoms: _324  and  _325
REMARK  133  A    between atoms: _324  and  _327
REMARK  134  A    between atoms: _327  and  _328
REMARK  135  A    between atoms: _338  and  _340
REMARK  136  A    between atoms: _340  and  _341
REMARK  137  A    between atoms: _340  and  _343
REMARK  138  A    between atoms: _343  and  _344
REMARK  139  A    between atoms: _347  and  _348
REMARK  140  A    between atoms: _353  and  _355
REMARK  141  A    between atoms: _355  and  _356
REMARK  142  A    between atoms: _355  and  _358
REMARK  143  A    between atoms: _358  and  _359
REMARK  144  A    between atoms: _359  and  _360
REMARK  145  A    between atoms: _360  and  _361
REMARK  146  A    between atoms: _370  and  _372
REMARK  147  A    between atoms: _372  and  _373
REMARK  148  A    between atoms: _372  and  _375
REMARK  149  A    between atoms: _375  and  _376
REMARK  150  A    between atoms: _379  and  _381
REMARK  151  A    between atoms: _381  and  _382
REMARK  152  A    between atoms: _381  and  _384
REMARK  153  A    between atoms: _384  and  _385
REMARK  154  A    between atoms: _388  and  _390
REMARK  155  A    between atoms: _390  and  _391
REMARK  156  A    between atoms: _390  and  _393
REMARK  157  A    between atoms: _393  and  _394
REMARK  158  A    between atoms: _397  and  _399
REMARK  159  A    between atoms: _399  and  _400
REMARK  160  A    between atoms: _399  and  _402
REMARK  161  A    between atoms: _402  and  _403
REMARK  162  A    between atoms: _406  and  _408
REMARK  163  A    between atoms: _408  and  _409
REMARK  164  A    between atoms: _408  and  _411
REMARK  165  A    between atoms: _411  and  _412
REMARK  166  A    between atoms: _415  and  _417
REMARK  167  A    between atoms: _417  and  _418
REMARK  168  A    between atoms: _417  and  _420
REMARK  169  A    between atoms: _420  and  _421
REMARK  170  A    between atoms: _424  and  _426
REMARK  171  A    between atoms: _426  and  _427
REMARK  172  A    between atoms: _430  and  _432
REMARK  173  A    between atoms: _432  and  _433
REMARK  174  A    between atoms: _432  and  _435
REMARK  175  A    between atoms: _435  and  _436
REMARK  176  A    between atoms: _439  and  _441
REMARK  177  A    between atoms: _441  and  _442
REMARK  178  A    between atoms: _441  and  _444
REMARK  179  A    between atoms: _444  and  _445
REMARK  180  A    between atoms: _448  and  _450
REMARK  181  A    between atoms: _450  and  _451
REMARK  182  A    between atoms: _450  and  _453
REMARK  183  A    between atoms: _453  and  _454
REMARK  184  A    between atoms: _457  and  _459
REMARK  185  A    between atoms: _459  and  _460
REMARK  186  A    between atoms: _459  and  _462
REMARK  187  A    between atoms: _462  and  _463
REMARK  188  A    between atoms: _463  and  _464
REMARK  189  A    between atoms: _464  and  _465
REMARK  190  A    between atoms: _465  and  _466
REMARK  191  A    between atoms: _470  and  _472
REMARK  192  A    between atoms: _472  and  _473
REMARK  193  A    between atoms: _472  and  _475
REMARK  194  A    between atoms: _475  and  _476
REMARK  195  A    between atoms: _479  and  _481
REMARK  196  A    between atoms: _481  and  _482
REMARK  197  A    between atoms: _481  and  _484
REMARK  198  A    between atoms: _484  and  _485
REMARK  199  A    between atoms: _488  and  _490
REMARK  200  A    between atoms: _490  and  _491
REMARK  201  A    between atoms: _490  and  _493
REMARK  202  A    between atoms: _493  and  _494
REMARK  203  A    between atoms: _498  and  _499
REMARK  204  A    between atoms: _504  and  _506
REMARK  205  A    between atoms: _506  and  _507
REMARK  206  A    between atoms: _506  and  _509
REMARK  207  A    between atoms: _509  and  _510
REMARK  208  A    between atoms: _515  and  _517
REMARK  209  A    between atoms: _517  and  _518
REMARK  210  A    between atoms: _517  and  _520
REMARK  211  A    between atoms: _520  and  _521
REMARK  212  A    between atoms: _521  and  _522
REMARK  213  A    between atoms: _522  and  _523
REMARK  214  A    between atoms: _523  and  _524
REMARK  215  A    between atoms: _528  and  _530
REMARK  216  A    between atoms: _530  and  _531
REMARK  217  A    between atoms: _530  and  _533
REMARK  218  A    between atoms: _533  and  _534
REMARK  219  A    between atoms: _534  and  _535
REMARK  220  A    between atoms: _538  and  _540
REMARK  221  A    between atoms: _540  and  _541
REMARK  222  A    between atoms: _540  and  _543
REMARK  223  A    between atoms: _543  and  _544
REMARK  224  A    between atoms: _547  and  _549
REMARK  225  A    between atoms: _549  and  _550
REMARK  226  A    between atoms: _549  and  _552
REMARK  227  A    between atoms: _552  and  _553
REMARK  228  A    between atoms: _553  and  _554
REMARK  229  A    between atoms: _554  and  _555
REMARK  230  A    between atoms: _564  and  _566
REMARK  231  A    between atoms: _566  and  _567
REMARK  232  A    between atoms: _566  and  _569
REMARK  233  A    between atoms: _569  and  _570
REMARK  234  A    between atoms: _572  and  _574
REMARK  235  A    between atoms: _574  and  _575
REMARK  236  A    between atoms: _574  and  _577
REMARK  237  A    between atoms: _577  and  _578
REMARK  238  A    between atoms: _584  and  _586
REMARK  239  A    between atoms: _586  and  _587
REMARK  240  A    between atoms: _590  and  _592
REMARK  241  A    between atoms: _592  and  _593
REMARK  242  A    between atoms: _592  and  _595
REMARK  243  A    between atoms: _595  and  _596
REMARK  244  A    between atoms: _596  and  _597
REMARK  245  A    between atoms: _600  and  _602
REMARK  246  A    between atoms: _602  and  _603
REMARK  247  A    between atoms: _602  and  _605
REMARK  248  A    between atoms: _605  and  _606
REMARK                            x       y       z     vdW  Elec       q    Type
REMARK                         _______ _______ _______ _____ _____    ______ ____
ROOT
ATOM      1  O   HOH     1     -10.234  31.201 -19.505  0.00  0.00    +0.000 OA
ENDROOT
TORSDOF 0
REMARK  Name = ../refined-set-2016/4pzv/4pzv_pocket.pdb
REMARK  248 active torsions:
REMARK  status: ('A' for Active; 'I' for Inactive)
REMARK    1  A    between atoms: _1  and  _3
REMARK    2  A    between atoms: _3  and  _4
REMARK    3  A    between atoms: _3  and  _6
REMARK    4  A    between atoms: _6  and  _7
REMARK    5  A    between atoms: _10  and  _12
REMARK    6  A    between atoms: _12  and  _13
REMARK    7  A    between atoms: _12  and  _15
REMARK    8  A    between atoms: _15  and  _16
REMARK    9  A    between atoms: _19  and  _21
REMARK   10  A    between atoms: _21  and  _22
REMARK   11  A    between atoms: _24  and  _26
REMARK   12  A    between atoms: _26  and  _27
REMARK   13  A    between atoms: _26  and  _29
REMARK   14  A    between atoms: _29  and  _30
REMARK   15  A    between atoms: _33  and  _35
REMARK   16  A    between atoms: _35  and  _36
REMARK   17  A    between atoms: _38  and  _40
REMARK   18  A    between atoms: _40  and  _41
REMARK   19  A    between atoms: _40  and  _43
REMARK   20  A    between atoms: _43  and  _44
REMARK   21  A    between atoms: _47  and  _49
REMARK   22  A    between atoms: _49  and  _50
REMARK   23  A    between atoms: _49  and  _52
REMARK   24  A    between atoms: _52  and  _53
REMARK   25  A    between atoms: _58  and  _60
REMARK   26  A    between atoms: _60  and  _61
REMARK   27  A    between atoms: _60  and  _63
REMARK   28  A    between atoms: _63  and  _64
REMARK   29  A    between atoms: _69  and  _70
REMARK   30  A    between atoms: _72  and  _74
REMARK   31  A    between atoms: _74  and  _75
REMARK   32  A    between atoms: _74  and  _77
REMARK   33  A    between atoms: _77  and  _78
REMARK   34  A    between atoms: _80  and  _82
REMARK   35  A    between atoms: _82  and  _83
REMARK   36  A    between atoms: _82  and  _85
REMARK   37  A    between atoms: _85  and  _86
REMARK   38  A    between atoms: _88  and  _90
REMARK   39  A    between atoms: _90  and  _91
REMARK   40  A    between atoms: _90  and  _93
REMARK   41  A    between atoms: _93  and  _94
REMARK   42  A    between atoms: _94  and  _95
REMARK   43  A    between atoms: _95  and  _96
REMARK   44  A    between atoms: _96  and  _97
REMARK   45  A    between atoms: _101  and  _103
REMARK   46  A    between atoms: _103  and  _104
REMARK   47  A    between atoms: _107  and  _109
REMARK   48  A    between atoms: _109  and  _110
REMARK   49  A    between atoms: _109  and  _112
REMARK   50  A    between atoms: _115  and  _117
REMARK   51  A    between atoms: _117  and  _118
REMARK   52  A    between atoms: _117  and  _120
REMARK   53  A    between atoms: _120  and  _121
REMARK   54  A    between atoms: _124  and  _126
REMARK   55  A    between atoms: _126  and  _127
REMARK   56  A    between atoms: _126  and  _129
REMARK   57  A    between atoms: _129  and  _130
REMARK   58  A    between atoms: _130  and  _131
REMARK   59  A    between atoms: _131  and  _132
REMARK   60  A    between atoms: _132  and  _133
REMARK   61  A    between atoms: _137  and  _139
REMARK   62  A    between atoms: _139  and  _140
REMARK   63  A    between atoms: _139  and  _142
REMARK   64  A    between atoms: _142  and  _143
REMARK   65  A    between atoms: _153  and  _155
REMARK   66  A    between atoms: _155  and  _156
REMARK   67  A    between atoms: _155  and  _158
REMARK   68  A    between atoms: _158  and  _159
REMARK   69  A    between atoms: _162  and  _164
REMARK   70  A    between atoms: _164  and  _165
REMARK   71  A    between atoms: _164  and  _167
REMARK   72  A    between atoms: _167  and  _168
REMARK   73  A    between atoms: _168  and  _169
REMARK   74  A    between atoms: _169  and  _170
REMARK   75  A    between atoms: _179  and  _181
REMARK   76  A    between atoms: _181  and  _182
REMARK   77  A    between atoms: _181  and  _184
REMARK   78  A    between atoms: _184  and  _185
REMARK   79  A    between atoms: _191  and  _193
REMARK   80  A    between atoms: _193  and  _194
REMARK   81  A    between atoms: _193  and  _196
REMARK   82  A    between atoms: _196  and  _197
REMARK   83  A    between atoms: _200  and  _202
REMARK   84  A    between atoms: _202  and  _203
REMARK   85  A    between atoms: _202  and  _205
REMARK   86  A    between atoms: _205  and  _206
REMARK   87  A    between atoms: _211  and  _213
REMARK   88  A    between atoms: _213  and  _214
REMARK   89  A    between atoms: _213  and  _216
REMARK   90  A    between atoms: _216  and  _217
REMARK   91  A    between atoms: _221  and  _222
REMARK   92  A    between atoms: _227  and  _229
REMARK   93  A    between atoms: _229  and  _230
REMARK   94  A    between atoms: _229  and  _232
REMARK   95  A    between atoms: _232  and  _233
REMARK   96  A    between atoms: _236  and  _238
REMARK   97  A    between atoms: _238  and  _239
REMARK   98  A    between atoms: _238  and  _241
REMARK   99  A    between atoms: _241  and  _242
REMARK  100  A    between atoms: _245  and  _247
REMARK  101  A    between atoms: _247  and  _248
REMARK  102  A    between atoms: _247  and  _250
REMARK  103  A    between atoms: _250  and  _251
REMARK  104  A    between atoms: _254  and  _256
REMARK  105  A    between atoms: _256  and  _257
REMARK  106  A    between atoms: _256  and  _259
REMARK  107  A    between atoms: _259  and  _260
REMARK  108  A    between atoms: _260  and  _261
REMARK  109  A    between atoms: _261  and  _262
REMARK  110  A    between atoms: _262  and  _263
REMARK  111  A    between atoms: _267  and  _269
REMARK  112  A    between atoms: _269  and  _270
REMARK  113  A    between atoms: _269  and  _272
REMARK  114  A    between atoms: _272  and  _273
REMARK  115  A    between atoms: _273  and  _274
REMARK  116  A    between atoms: _277  and  _279
REMARK  117  A    between atoms: _279  and  _280
REMARK  118  A    between atoms: _279  and  _282
REMARK  119  A    between atoms: _282  and  _283
REMARK  120  A    between atoms: _283  and  _284
REMARK  121  A    between atoms: _284  and  _285
REMARK  122  A    between atoms: _294  and  _296
REMARK  123  A    between atoms: _296  and  _297
REMARK  124  A    between atoms: _296  and  _299
REMARK  125  A    between atoms: _299  and  _300
REMARK  126  A    between atoms: _303  and  _305
REMARK  127  A    between atoms: _305  and  _306
REMARK  128  A    between atoms: _310  and  _311
REMARK  129  A    between atoms: _316  and  _318
REMARK  130  A    between atoms: _318  and  _319
REMARK  131  A    between atoms: _322  and  _324
REMARK  132  A    between atoms: _324  and  _325
REMARK  133  A    between atoms: _324  and  _327
REMARK  134  A    between atoms: _327  and  _328
REMARK  135  A    between atoms: _338  and  _340
REMARK  136  A    between atoms: _340  and  _341
REMARK  137  A    between atoms: _340  and  _343
REMARK  138  A    between atoms: _343  and  _344
REMARK  139  A    between atoms: _347  and  _348
REMARK  140  A    between atoms: _353  and  _355
REMARK  141  A    between atoms: _355  and  _356
REMARK  142  A    between atoms: _355  and  _358
REMARK  143  A    between atoms: _358  and  _359
REMARK  144  A    between atoms: _359  and  _360
REMARK  145  A    between atoms: _360  and  _361
REMARK  146  A    between atoms: _370  and  _372
REMARK  147  A    between atoms: _372  and  _373
REMARK  148  A    between atoms: _372  and  _375
REMARK  149  A    between atoms: _375  and  _376
REMARK  150  A    between atoms: _379  and  _381
REMARK  151  A    between atoms: _381  and  _382
REMARK  152  A    between atoms: _381  and  _384
REMARK  153  A    between atoms: _384  and  _385
REMARK  154  A    between atoms: _388  and  _390
REMARK  155  A    between atoms: _390  and  _391
REMARK  156  A    between atoms: _390  and  _393
REMARK  157  A    between atoms: _393  and  _394
REMARK  158  A    between atoms: _397  and  _399
REMARK  159  A    between atoms: _399  and  _400
REMARK  160  A    between atoms: _399  and  _402
REMARK  161  A    between atoms: _402  and  _403
REMARK  162  A    between atoms: _406  and  _408
REMARK  163  A    between atoms: _408  and  _409
REMARK  164  A    between atoms: _408  and  _411
REMARK  165  A    between atoms: _411  and  _412
REMARK  166  A    between atoms: _415  and  _417
REMARK  167  A    between atoms: _417  and  _418
REMARK  168  A    between atoms: _417  and  _420
REMARK  169  A    between atoms: _420  and  _421
REMARK  170  A    between atoms: _424  and  _426
REMARK  171  A    between atoms: _426  and  _427
REMARK  172  A    between atoms: _430  and  _432
REMARK  173  A    between atoms: _432  and  _433
REMARK  174  A    between atoms: _432  and  _435
REMARK  175  A    between atoms: _435  and  _436
REMARK  176  A    between atoms: _439  and  _441
REMARK  177  A    between atoms: _441  and  _442
REMARK  178  A    between atoms: _441  and  _444
REMARK  179  A    between atoms: _444  and  _445
REMARK  180  A    between atoms: _448  and  _450
REMARK  181  A    between atoms: _450  and  _451
REMARK  182  A    between atoms: _450  and  _453
REMARK  183  A    between atoms: _453  and  _454
REMARK  184  A    between atoms: _457  and  _459
REMARK  185  A    between atoms: _459  and  _460
REMARK  186  A    between atoms: _459  and  _462
REMARK  187  A    between atoms: _462  and  _463
REMARK  188  A    between atoms: _463  and  _464
REMARK  189  A    between atoms: _464  and  _465
REMARK  190  A    between atoms: _465  and  _466
REMARK  191  A    between atoms: _470  and  _472
REMARK  192  A    between atoms: _472  and  _473
REMARK  193  A    between atoms: _472  and  _475
REMARK  194  A    between atoms: _475  and  _476
REMARK  195  A    between atoms: _479  and  _481
REMARK  196  A    between atoms: _481  and  _482
REMARK  197  A    between atoms: _481  and  _484
REMARK  198  A    between atoms: _484  and  _485
REMARK  199  A    between atoms: _488  and  _490
REMARK  200  A    between atoms: _490  and  _491
REMARK  201  A    between atoms: _490  and  _493
REMARK  202  A    between atoms: _493  and  _494
REMARK  203  A    between atoms: _498  and  _499
REMARK  204  A    between atoms: _504  and  _506
REMARK  205  A    between atoms: _506  and  _507
REMARK  206  A    between atoms: _506  and  _509
REMARK  207  A    between atoms: _509  and  _510
REMARK  208  A    between atoms: _515  and  _517
REMARK  209  A    between atoms: _517  and  _518
REMARK  210  A    between atoms: _517  and  _520
REMARK  211  A    between atoms: _520  and  _521
REMARK  212  A    between atoms: _521  and  _522
REMARK  213  A    between atoms: _522  and  _523
REMARK  214  A    between atoms: _523  and  _524
REMARK  215  A    between atoms: _528  and  _530
REMARK  216  A    between atoms: _530  and  _531
REMARK  217  A    between atoms: _530  and  _533
REMARK  218  A    between atoms: _533  and  _534
REMARK  219  A    between atoms: _534  and  _535
REMARK  220  A    between atoms: _538  and  _540
REMARK  221  A    between atoms: _540  and  _541
REMARK  222  A    between atoms: _540  and  _543
REMARK  223  A    between atoms: _543  and  _544
REMARK  224  A    between atoms: _547  and  _549
REMARK  225  A    between atoms: _549  and  _550
REMARK  226  A    between atoms: _549  and  _552
REMARK  227  A    between atoms: _552  and  _553
REMARK  228  A    between atoms: _553  and  _554
REMARK  229  A    between atoms: _554  and  _555
REMARK  230  A    between atoms: _564  and  _566
REMARK  231  A    between atoms: _566  and  _567
REMARK  232  A    between atoms: _566  and  _569
REMARK  233  A    between atoms: _569  and  _570
REMARK  234  A    between atoms: _572  and  _574
REMARK  235  A    between atoms: _574  and  _575
REMARK  236  A    between atoms: _574  and  _577
REMARK  237  A    between atoms: _577  and  _578
REMARK  238  A    between atoms: _584  and  _586
REMARK  239  A    between atoms: _586  and  _587
REMARK  240  A    between atoms: _590  and  _592
REMARK  241  A    between atoms: _592  and  _593
REMARK  242  A    between atoms: _592  and  _595
REMARK  243  A    between atoms: _595  and  _596
REMARK  244  A    between atoms: _596  and  _597
REMARK  245  A    between atoms: _600  and  _602
REMARK  246  A    between atoms: _602  and  _603
REMARK  247  A    between atoms: _602  and  _605
REMARK  248  A    between atoms: _605  and  _606
REMARK                            x       y       z     vdW  Elec       q    Type
REMARK                         _______ _______ _______ _____ _____    ______ ____
ROOT
ATOM      1  O   HOH     1      -3.813  28.133 -18.894  0.00  0.00    +0.000 OA
ENDROOT
TORSDOF 0
REMARK  Name = ../refined-set-2016/4pzv/4pzv_pocket.pdb
REMARK  248 active torsions:
REMARK  status: ('A' for Active; 'I' for Inactive)
REMARK    1  A    between atoms: _1  and  _3
REMARK    2  A    between atoms: _3  and  _4
REMARK    3  A    between atoms: _3  and  _6
REMARK    4  A    between atoms: _6  and  _7
REMARK    5  A    between atoms: _10  and  _12
REMARK    6  A    between atoms: _12  and  _13
REMARK    7  A    between atoms: _12  and  _15
REMARK    8  A    between atoms: _15  and  _16
REMARK    9  A    between atoms: _19  and  _21
REMARK   10  A    between atoms: _21  and  _22
REMARK   11  A    between atoms: _24  and  _26
REMARK   12  A    between atoms: _26  and  _27
REMARK   13  A    between atoms: _26  and  _29
REMARK   14  A    between atoms: _29  and  _30
REMARK   15  A    between atoms: _33  and  _35
REMARK   16  A    between atoms: _35  and  _36
REMARK   17  A    between atoms: _38  and  _40
REMARK   18  A    between atoms: _40  and  _41
REMARK   19  A    between atoms: _40  and  _43
REMARK   20  A    between atoms: _43  and  _44
REMARK   21  A    between atoms: _47  and  _49
REMARK   22  A    between atoms: _49  and  _50
REMARK   23  A    between atoms: _49  and  _52
REMARK   24  A    between atoms: _52  and  _53
REMARK   25  A    between atoms: _58  and  _60
REMARK   26  A    between atoms: _60  and  _61
REMARK   27  A    between atoms: _60  and  _63
REMARK   28  A    between atoms: _63  and  _64
REMARK   29  A    between atoms: _69  and  _70
REMARK   30  A    between atoms: _72  and  _74
REMARK   31  A    between atoms: _74  and  _75
REMARK   32  A    between atoms: _74  and  _77
REMARK   33  A    between atoms: _77  and  _78
REMARK   34  A    between atoms: _80  and  _82
REMARK   35  A    between atoms: _82  and  _83
REMARK   36  A    between atoms: _82  and  _85
REMARK   37  A    between atoms: _85  and  _86
REMARK   38  A    between atoms: _88  and  _90
REMARK   39  A    between atoms: _90  and  _91
REMARK   40  A    between atoms: _90  and  _93
REMARK   41  A    between atoms: _93  and  _94
REMARK   42  A    between atoms: _94  and  _95
REMARK   43  A    between atoms: _95  and  _96
REMARK   44  A    between atoms: _96  and  _97
REMARK   45  A    between atoms: _101  and  _103
REMARK   46  A    between atoms: _103  and  _104
REMARK   47  A    between atoms: _107  and  _109
REMARK   48  A    between atoms: _109  and  _110
REMARK   49  A    between atoms: _109  and  _112
REMARK   50  A    between atoms: _115  and  _117
REMARK   51  A    between atoms: _117  and  _118
REMARK   52  A    between atoms: _117  and  _120
REMARK   53  A    between atoms: _120  and  _121
REMARK   54  A    between atoms: _124  and  _126
REMARK   55  A    between atoms: _126  and  _127
REMARK   56  A    between atoms: _126  and  _129
REMARK   57  A    between atoms: _129  and  _130
REMARK   58  A    between atoms: _130  and  _131
REMARK   59  A    between atoms: _131  and  _132
REMARK   60  A    between atoms: _132  and  _133
REMARK   61  A    between atoms: _137  and  _139
REMARK   62  A    between atoms: _139  and  _140
REMARK   63  A    between atoms: _139  and  _142
REMARK   64  A    between atoms: _142  and  _143
REMARK   65  A    between atoms: _153  and  _155
REMARK   66  A    between atoms: _155  and  _156
REMARK   67  A    between atoms: _155  and  _158
REMARK   68  A    between atoms: _158  and  _159
REMARK   69  A    between atoms: _162  and  _164
REMARK   70  A    between atoms: _164  and  _165
REMARK   71  A    between atoms: _164  and  _167
REMARK   72  A    between atoms: _167  and  _168
REMARK   73  A    between atoms: _168  and  _169
REMARK   74  A    between atoms: _169  and  _170
REMARK   75  A    between atoms: _179  and  _181
REMARK   76  A    between atoms: _181  and  _182
REMARK   77  A    between atoms: _181  and  _184
REMARK   78  A    between atoms: _184  and  _185
REMARK   79  A    between atoms: _191  and  _193
REMARK   80  A    between atoms: _193  and  _194
REMARK   81  A    between atoms: _193  and  _196
REMARK   82  A    between atoms: _196  and  _197
REMARK   83  A    between atoms: _200  and  _202
REMARK   84  A    between atoms: _202  and  _203
REMARK   85  A    between atoms: _202  and  _205
REMARK   86  A    between atoms: _205  and  _206
REMARK   87  A    between atoms: _211  and  _213
REMARK   88  A    between atoms: _213  and  _214
REMARK   89  A    between atoms: _213  and  _216
REMARK   90  A    between atoms: _216  and  _217
REMARK   91  A    between atoms: _221  and  _222
REMARK   92  A    between atoms: _227  and  _229
REMARK   93  A    between atoms: _229  and  _230
REMARK   94  A    between atoms: _229  and  _232
REMARK   95  A    between atoms: _232  and  _233
REMARK   96  A    between atoms: _236  and  _238
REMARK   97  A    between atoms: _238  and  _239
REMARK   98  A    between atoms: _238  and  _241
REMARK   99  A    between atoms: _241  and  _242
REMARK  100  A    between atoms: _245  and  _247
REMARK  101  A    between atoms: _247  and  _248
REMARK  102  A    between atoms: _247  and  _250
REMARK  103  A    between atoms: _250  and  _251
REMARK  104  A    between atoms: _254  and  _256
REMARK  105  A    between atoms: _256  and  _257
REMARK  106  A    between atoms: _256  and  _259
REMARK  107  A    between atoms: _259  and  _260
REMARK  108  A    between atoms: _260  and  _261
REMARK  109  A    between atoms: _261  and  _262
REMARK  110  A    between atoms: _262  and  _263
REMARK  111  A    between atoms: _267  and  _269
REMARK  112  A    between atoms: _269  and  _270
REMARK  113  A    between atoms: _269  and  _272
REMARK  114  A    between atoms: _272  and  _273
REMARK  115  A    between atoms: _273  and  _274
REMARK  116  A    between atoms: _277  and  _279
REMARK  117  A    between atoms: _279  and  _280
REMARK  118  A    between atoms: _279  and  _282
REMARK  119  A    between atoms: _282  and  _283
REMARK  120  A    between atoms: _283  and  _284
REMARK  121  A    between atoms: _284  and  _285
REMARK  122  A    between atoms: _294  and  _296
REMARK  123  A    between atoms: _296  and  _297
REMARK  124  A    between atoms: _296  and  _299
REMARK  125  A    between atoms: _299  and  _300
REMARK  126  A    between atoms: _303  and  _305
REMARK  127  A    between atoms: _305  and  _306
REMARK  128  A    between atoms: _310  and  _311
REMARK  129  A    between atoms: _316  and  _318
REMARK  130  A    between atoms: _318  and  _319
REMARK  131  A    between atoms: _322  and  _324
REMARK  132  A    between atoms: _324  and  _325
REMARK  133  A    between atoms: _324  and  _327
REMARK  134  A    between atoms: _327  and  _328
REMARK  135  A    between atoms: _338  and  _340
REMARK  136  A    between atoms: _340  and  _341
REMARK  137  A    between atoms: _340  and  _343
REMARK  138  A    between atoms: _343  and  _344
REMARK  139  A    between atoms: _347  and  _348
REMARK  140  A    between atoms: _353  and  _355
REMARK  141  A    between atoms: _355  and  _356
REMARK  142  A    between atoms: _355  and  _358
REMARK  143  A    between atoms: _358  and  _359
REMARK  144  A    between atoms: _359  and  _360
REMARK  145  A    between atoms: _360  and  _361
REMARK  146  A    between atoms: _370  and  _372
REMARK  147  A    between atoms: _372  and  _373
REMARK  148  A    between atoms: _372  and  _375
REMARK  149  A    between atoms: _375  and  _376
REMARK  150  A    between atoms: _379  and  _381
REMARK  151  A    between atoms: _381  and  _382
REMARK  152  A    between atoms: _381  and  _384
REMARK  153  A    between atoms: _384  and  _385
REMARK  154  A    between atoms: _388  and  _390
REMARK  155  A    between atoms: _390  and  _391
REMARK  156  A    between atoms: _390  and  _393
REMARK  157  A    between atoms: _393  and  _394
REMARK  158  A    between atoms: _397  and  _399
REMARK  159  A    between atoms: _399  and  _400
REMARK  160  A    between atoms: _399  and  _402
REMARK  161  A    between atoms: _402  and  _403
REMARK  162  A    between atoms: _406  and  _408
REMARK  163  A    between atoms: _408  and  _409
REMARK  164  A    between atoms: _408  and  _411
REMARK  165  A    between atoms: _411  and  _412
REMARK  166  A    between atoms: _415  and  _417
REMARK  167  A    between atoms: _417  and  _418
REMARK  168  A    between atoms: _417  and  _420
REMARK  169  A    between atoms: _420  and  _421
REMARK  170  A    between atoms: _424  and  _426
REMARK  171  A    between atoms: _426  and  _427
REMARK  172  A    between atoms: _430  and  _432
REMARK  173  A    between atoms: _432  and  _433
REMARK  174  A    between atoms: _432  and  _435
REMARK  175  A    between atoms: _435  and  _436
REMARK  176  A    between atoms: _439  and  _441
REMARK  177  A    between atoms: _441  and  _442
REMARK  178  A    between atoms: _441  and  _444
REMARK  179  A    between atoms: _444  and  _445
REMARK  180  A    between atoms: _448  and  _450
REMARK  181  A    between atoms: _450  and  _451
REMARK  182  A    between atoms: _450  and  _453
REMARK  183  A    between atoms: _453  and  _454
REMARK  184  A    between atoms: _457  and  _459
REMARK  185  A    between atoms: _459  and  _460
REMARK  186  A    between atoms: _459  and  _462
REMARK  187  A    between atoms: _462  and  _463
REMARK  188  A    between atoms: _463  and  _464
REMARK  189  A    between atoms: _464  and  _465
REMARK  190  A    between atoms: _465  and  _466
REMARK  191  A    between atoms: _470  and  _472
REMARK  192  A    between atoms: _472  and  _473
REMARK  193  A    between atoms: _472  and  _475
REMARK  194  A    between atoms: _475  and  _476
REMARK  195  A    between atoms: _479  and  _481
REMARK  196  A    between atoms: _481  and  _482
REMARK  197  A    between atoms: _481  and  _484
REMARK  198  A    between atoms: _484  and  _485
REMARK  199  A    between atoms: _488  and  _490
REMARK  200  A    between atoms: _490  and  _491
REMARK  201  A    between atoms: _490  and  _493
REMARK  202  A    between atoms: _493  and  _494
REMARK  203  A    between atoms: _498  and  _499
REMARK  204  A    between atoms: _504  and  _506
REMARK  205  A    between atoms: _506  and  _507
REMARK  206  A    between atoms: _506  and  _509
REMARK  207  A    between atoms: _509  and  _510
REMARK  208  A    between atoms: _515  and  _517
REMARK  209  A    between atoms: _517  and  _518
REMARK  210  A    between atoms: _517  and  _520
REMARK  211  A    between atoms: _520  and  _521
REMARK  212  A    between atoms: _521  and  _522
REMARK  213  A    between atoms: _522  and  _523
REMARK  214  A    between atoms: _523  and  _524
REMARK  215  A    between atoms: _528  and  _530
REMARK  216  A    between atoms: _530  and  _531
REMARK  217  A    between atoms: _530  and  _533
REMARK  218  A    between atoms: _533  and  _534
REMARK  219  A    between atoms: _534  and  _535
REMARK  220  A    between atoms: _538  and  _540
REMARK  221  A    between atoms: _540  and  _541
REMARK  222  A    between atoms: _540  and  _543
REMARK  223  A    between atoms: _543  and  _544
REMARK  224  A    between atoms: _547  and  _549
REMARK  225  A    between atoms: _549  and  _550
REMARK  226  A    between atoms: _549  and  _552
REMARK  227  A    between atoms: _552  and  _553
REMARK  228  A    between atoms: _553  and  _554
REMARK  229  A    between atoms: _554  and  _555
REMARK  230  A    between atoms: _564  and  _566
REMARK  231  A    between atoms: _566  and  _567
REMARK  232  A    between atoms: _566  and  _569
REMARK  233  A    between atoms: _569  and  _570
REMARK  234  A    between atoms: _572  and  _574
REMARK  235  A    between atoms: _574  and  _575
REMARK  236  A    between atoms: _574  and  _577
REMARK  237  A    between atoms: _577  and  _578
REMARK  238  A    between atoms: _584  and  _586
REMARK  239  A    between atoms: _586  and  _587
REMARK  240  A    between atoms: _590  and  _592
REMARK  241  A    between atoms: _592  and  _593
REMARK  242  A    between atoms: _592  and  _595
REMARK  243  A    between atoms: _595  and  _596
REMARK  244  A    between atoms: _596  and  _597
REMARK  245  A    between atoms: _600  and  _602
REMARK  246  A    between atoms: _602  and  _603
REMARK  247  A    between atoms: _602  and  _605
REMARK  248  A    between atoms: _605  and  _606
REMARK                            x       y       z     vdW  Elec       q    Type
REMARK                         _______ _______ _______ _____ _____    ______ ____
ROOT
ATOM      1  O   HOH     1      -2.818  31.447 -17.232  0.00  0.00    +0.000 OA
ENDROOT
TORSDOF 0
REMARK  Name = ../refined-set-2016/4pzv/4pzv_pocket.pdb
REMARK  248 active torsions:
REMARK  status: ('A' for Active; 'I' for Inactive)
REMARK    1  A    between atoms: _1  and  _3
REMARK    2  A    between atoms: _3  and  _4
REMARK    3  A    between atoms: _3  and  _6
REMARK    4  A    between atoms: _6  and  _7
REMARK    5  A    between atoms: _10  and  _12
REMARK    6  A    between atoms: _12  and  _13
REMARK    7  A    between atoms: _12  and  _15
REMARK    8  A    between atoms: _15  and  _16
REMARK    9  A    between atoms: _19  and  _21
REMARK   10  A    between atoms: _21  and  _22
REMARK   11  A    between atoms: _24  and  _26
REMARK   12  A    between atoms: _26  and  _27
REMARK   13  A    between atoms: _26  and  _29
REMARK   14  A    between atoms: _29  and  _30
REMARK   15  A    between atoms: _33  and  _35
REMARK   16  A    between atoms: _35  and  _36
REMARK   17  A    between atoms: _38  and  _40
REMARK   18  A    between atoms: _40  and  _41
REMARK   19  A    between atoms: _40  and  _43
REMARK   20  A    between atoms: _43  and  _44
REMARK   21  A    between atoms: _47  and  _49
REMARK   22  A    between atoms: _49  and  _50
REMARK   23  A    between atoms: _49  and  _52
REMARK   24  A    between atoms: _52  and  _53
REMARK   25  A    between atoms: _58  and  _60
REMARK   26  A    between atoms: _60  and  _61
REMARK   27  A    between atoms: _60  and  _63
REMARK   28  A    between atoms: _63  and  _64
REMARK   29  A    between atoms: _69  and  _70
REMARK   30  A    between atoms: _72  and  _74
REMARK   31  A    between atoms: _74  and  _75
REMARK   32  A    between atoms: _74  and  _77
REMARK   33  A    between atoms: _77  and  _78
REMARK   34  A    between atoms: _80  and  _82
REMARK   35  A    between atoms: _82  and  _83
REMARK   36  A    between atoms: _82  and  _85
REMARK   37  A    between atoms: _85  and  _86
REMARK   38  A    between atoms: _88  and  _90
REMARK   39  A    between atoms: _90  and  _91
REMARK   40  A    between atoms: _90  and  _93
REMARK   41  A    between atoms: _93  and  _94
REMARK   42  A    between atoms: _94  and  _95
REMARK   43  A    between atoms: _95  and  _96
REMARK   44  A    between atoms: _96  and  _97
REMARK   45  A    between atoms: _101  and  _103
REMARK   46  A    between atoms: _103  and  _104
REMARK   47  A    between atoms: _107  and  _109
REMARK   48  A    between atoms: _109  and  _110
REMARK   49  A    between atoms: _109  and  _112
REMARK   50  A    between atoms: _115  and  _117
REMARK   51  A    between atoms: _117  and  _118
REMARK   52  A    between atoms: _117  and  _120
REMARK   53  A    between atoms: _120  and  _121
REMARK   54  A    between atoms: _124  and  _126
REMARK   55  A    between atoms: _126  and  _127
REMARK   56  A    between atoms: _126  and  _129
REMARK   57  A    between atoms: _129  and  _130
REMARK   58  A    between atoms: _130  and  _131
REMARK   59  A    between atoms: _131  and  _132
REMARK   60  A    between atoms: _132  and  _133
REMARK   61  A    between atoms: _137  and  _139
REMARK   62  A    between atoms: _139  and  _140
REMARK   63  A    between atoms: _139  and  _142
REMARK   64  A    between atoms: _142  and  _143
REMARK   65  A    between atoms: _153  and  _155
REMARK   66  A    between atoms: _155  and  _156
REMARK   67  A    between atoms: _155  and  _158
REMARK   68  A    between atoms: _158  and  _159
REMARK   69  A    between atoms: _162  and  _164
REMARK   70  A    between atoms: _164  and  _165
REMARK   71  A    between atoms: _164  and  _167
REMARK   72  A    between atoms: _167  and  _168
REMARK   73  A    between atoms: _168  and  _169
REMARK   74  A    between atoms: _169  and  _170
REMARK   75  A    between atoms: _179  and  _181
REMARK   76  A    between atoms: _181  and  _182
REMARK   77  A    between atoms: _181  and  _184
REMARK   78  A    between atoms: _184  and  _185
REMARK   79  A    between atoms: _191  and  _193
REMARK   80  A    between atoms: _193  and  _194
REMARK   81  A    between atoms: _193  and  _196
REMARK   82  A    between atoms: _196  and  _197
REMARK   83  A    between atoms: _200  and  _202
REMARK   84  A    between atoms: _202  and  _203
REMARK   85  A    between atoms: _202  and  _205
REMARK   86  A    between atoms: _205  and  _206
REMARK   87  A    between atoms: _211  and  _213
REMARK   88  A    between atoms: _213  and  _214
REMARK   89  A    between atoms: _213  and  _216
REMARK   90  A    between atoms: _216  and  _217
REMARK   91  A    between atoms: _221  and  _222
REMARK   92  A    between atoms: _227  and  _229
REMARK   93  A    between atoms: _229  and  _230
REMARK   94  A    between atoms: _229  and  _232
REMARK   95  A    between atoms: _232  and  _233
REMARK   96  A    between atoms: _236  and  _238
REMARK   97  A    between atoms: _238  and  _239
REMARK   98  A    between atoms: _238  and  _241
REMARK   99  A    between atoms: _241  and  _242
REMARK  100  A    between atoms: _245  and  _247
REMARK  101  A    between atoms: _247  and  _248
REMARK  102  A    between atoms: _247  and  _250
REMARK  103  A    between atoms: _250  and  _251
REMARK  104  A    between atoms: _254  and  _256
REMARK  105  A    between atoms: _256  and  _257
REMARK  106  A    between atoms: _256  and  _259
REMARK  107  A    between atoms: _259  and  _260
REMARK  108  A    between atoms: _260  and  _261
REMARK  109  A    between atoms: _261  and  _262
REMARK  110  A    between atoms: _262  and  _263
REMARK  111  A    between atoms: _267  and  _269
REMARK  112  A    between atoms: _269  and  _270
REMARK  113  A    between atoms: _269  and  _272
REMARK  114  A    between atoms: _272  and  _273
REMARK  115  A    between atoms: _273  and  _274
REMARK  116  A    between atoms: _277  and  _279
REMARK  117  A    between atoms: _279  and  _280
REMARK  118  A    between atoms: _279  and  _282
REMARK  119  A    between atoms: _282  and  _283
REMARK  120  A    between atoms: _283  and  _284
REMARK  121  A    between atoms: _284  and  _285
REMARK  122  A    between atoms: _294  and  _296
REMARK  123  A    between atoms: _296  and  _297
REMARK  124  A    between atoms: _296  and  _299
REMARK  125  A    between atoms: _299  and  _300
REMARK  126  A    between atoms: _303  and  _305
REMARK  127  A    between atoms: _305  and  _306
REMARK  128  A    between atoms: _310  and  _311
REMARK  129  A    between atoms: _316  and  _318
REMARK  130  A    between atoms: _318  and  _319
REMARK  131  A    between atoms: _322  and  _324
REMARK  132  A    between atoms: _324  and  _325
REMARK  133  A    between atoms: _324  and  _327
REMARK  134  A    between atoms: _327  and  _328
REMARK  135  A    between atoms: _338  and  _340
REMARK  136  A    between atoms: _340  and  _341
REMARK  137  A    between atoms: _340  and  _343
REMARK  138  A    between atoms: _343  and  _344
REMARK  139  A    between atoms: _347  and  _348
REMARK  140  A    between atoms: _353  and  _355
REMARK  141  A    between atoms: _355  and  _356
REMARK  142  A    between atoms: _355  and  _358
REMARK  143  A    between atoms: _358  and  _359
REMARK  144  A    between atoms: _359  and  _360
REMARK  145  A    between atoms: _360  and  _361
REMARK  146  A    between atoms: _370  and  _372
REMARK  147  A    between atoms: _372  and  _373
REMARK  148  A    between atoms: _372  and  _375
REMARK  149  A    between atoms: _375  and  _376
REMARK  150  A    between atoms: _379  and  _381
REMARK  151  A    between atoms: _381  and  _382
REMARK  152  A    between atoms: _381  and  _384
REMARK  153  A    between atoms: _384  and  _385
REMARK  154  A    between atoms: _388  and  _390
REMARK  155  A    between atoms: _390  and  _391
REMARK  156  A    between atoms: _390  and  _393
REMARK  157  A    between atoms: _393  and  _394
REMARK  158  A    between atoms: _397  and  _399
REMARK  159  A    between atoms: _399  and  _400
REMARK  160  A    between atoms: _399  and  _402
REMARK  161  A    between atoms: _402  and  _403
REMARK  162  A    between atoms: _406  and  _408
REMARK  163  A    between atoms: _408  and  _409
REMARK  164  A    between atoms: _408  and  _411
REMARK  165  A    between atoms: _411  and  _412
REMARK  166  A    between atoms: _415  and  _417
REMARK  167  A    between atoms: _417  and  _418
REMARK  168  A    between atoms: _417  and  _420
REMARK  169  A    between atoms: _420  and  _421
REMARK  170  A    between atoms: _424  and  _426
REMARK  171  A    between atoms: _426  and  _427
REMARK  172  A    between atoms: _430  and  _432
REMARK  173  A    between atoms: _432  and  _433
REMARK  174  A    between atoms: _432  and  _435
REMARK  175  A    between atoms: _435  and  _436
REMARK  176  A    between atoms: _439  and  _441
REMARK  177  A    between atoms: _441  and  _442
REMARK  178  A    between atoms: _441  and  _444
REMARK  179  A    between atoms: _444  and  _445
REMARK  180  A    between atoms: _448  and  _450
REMARK  181  A    between atoms: _450  and  _451
REMARK  182  A    between atoms: _450  and  _453
REMARK  183  A    between atoms: _453  and  _454
REMARK  184  A    between atoms: _457  and  _459
REMARK  185  A    between atoms: _459  and  _460
REMARK  186  A    between atoms: _459  and  _462
REMARK  187  A    between atoms: _462  and  _463
REMARK  188  A    between atoms: _463  and  _464
REMARK  189  A    between atoms: _464  and  _465
REMARK  190  A    between atoms: _465  and  _466
REMARK  191  A    between atoms: _470  and  _472
REMARK  192  A    between atoms: _472  and  _473
REMARK  193  A    between atoms: _472  and  _475
REMARK  194  A    between atoms: _475  and  _476
REMARK  195  A    between atoms: _479  and  _481
REMARK  196  A    between atoms: _481  and  _482
REMARK  197  A    between atoms: _481  and  _484
REMARK  198  A    between atoms: _484  and  _485
REMARK  199  A    between atoms: _488  and  _490
REMARK  200  A    between atoms: _490  and  _491
REMARK  201  A    between atoms: _490  and  _493
REMARK  202  A    between atoms: _493  and  _494
REMARK  203  A    between atoms: _498  and  _499
REMARK  204  A    between atoms: _504  and  _506
REMARK  205  A    between atoms: _506  and  _507
REMARK  206  A    between atoms: _506  and  _509
REMARK  207  A    between atoms: _509  and  _510
REMARK  208  A    between atoms: _515  and  _517
REMARK  209  A    between atoms: _517  and  _518
REMARK  210  A    between atoms: _517  and  _520
REMARK  211  A    between atoms: _520  and  _521
REMARK  212  A    between atoms: _521  and  _522
REMARK  213  A    between atoms: _522  and  _523
REMARK  214  A    between atoms: _523  and  _524
REMARK  215  A    between atoms: _528  and  _530
REMARK  216  A    between atoms: _530  and  _531
REMARK  217  A    between atoms: _530  and  _533
REMARK  218  A    between atoms: _533  and  _534
REMARK  219  A    between atoms: _534  and  _535
REMARK  220  A    between atoms: _538  and  _540
REMARK  221  A    between atoms: _540  and  _541
REMARK  222  A    between atoms: _540  and  _543
REMARK  223  A    between atoms: _543  and  _544
REMARK  224  A    between atoms: _547  and  _549
REMARK  225  A    between atoms: _549  and  _550
REMARK  226  A    between atoms: _549  and  _552
REMARK  227  A    between atoms: _552  and  _553
REMARK  228  A    between atoms: _553  and  _554
REMARK  229  A    between atoms: _554  and  _555
REMARK  230  A    between atoms: _564  and  _566
REMARK  231  A    between atoms: _566  and  _567
REMARK  232  A    between atoms: _566  and  _569
REMARK  233  A    between atoms: _569  and  _570
REMARK  234  A    between atoms: _572  and  _574
REMARK  235  A    between atoms: _574  and  _575
REMARK  236  A    between atoms: _574  and  _577
REMARK  237  A    between atoms: _577  and  _578
REMARK  238  A    between atoms: _584  and  _586
REMARK  239  A    between atoms: _586  and  _587
REMARK  240  A    between atoms: _590  and  _592
REMARK  241  A    between atoms: _592  and  _593
REMARK  242  A    between atoms: _592  and  _595
REMARK  243  A    between atoms: _595  and  _596
REMARK  244  A    between atoms: _596  and  _597
REMARK  245  A    between atoms: _600  and  _602
REMARK  246  A    between atoms: _602  and  _603
REMARK  247  A    between atoms: _602  and  _605
REMARK  248  A    between atoms: _605  and  _606
REMARK                            x       y       z     vdW  Elec       q    Type
REMARK                         _______ _______ _______ _____ _____    ______ ____
ROOT
ATOM      1  O   HOH     1      14.726  21.628  -9.589  0.00  0.00    +0.000 OA
ENDROOT
TORSDOF 0
REMARK  Name = ../refined-set-2016/4pzv/4pzv_pocket.pdb
REMARK  248 active torsions:
REMARK  status: ('A' for Active; 'I' for Inactive)
REMARK    1  A    between atoms: _1  and  _3
REMARK    2  A    between atoms: _3  and  _4
REMARK    3  A    between atoms: _3  and  _6
REMARK    4  A    between atoms: _6  and  _7
REMARK    5  A    between atoms: _10  and  _12
REMARK    6  A    between atoms: _12  and  _13
REMARK    7  A    between atoms: _12  and  _15
REMARK    8  A    between atoms: _15  and  _16
REMARK    9  A    between atoms: _19  and  _21
REMARK   10  A    between atoms: _21  and  _22
REMARK   11  A    between atoms: _24  and  _26
REMARK   12  A    between atoms: _26  and  _27
REMARK   13  A    between atoms: _26  and  _29
REMARK   14  A    between atoms: _29  and  _30
REMARK   15  A    between atoms: _33  and  _35
REMARK   16  A    between atoms: _35  and  _36
REMARK   17  A    between atoms: _38  and  _40
REMARK   18  A    between atoms: _40  and  _41
REMARK   19  A    between atoms: _40  and  _43
REMARK   20  A    between atoms: _43  and  _44
REMARK   21  A    between atoms: _47  and  _49
REMARK   22  A    between atoms: _49  and  _50
REMARK   23  A    between atoms: _49  and  _52
REMARK   24  A    between atoms: _52  and  _53
REMARK   25  A    between atoms: _58  and  _60
REMARK   26  A    between atoms: _60  and  _61
REMARK   27  A    between atoms: _60  and  _63
REMARK   28  A    between atoms: _63  and  _64
REMARK   29  A    between atoms: _69  and  _70
REMARK   30  A    between atoms: _72  and  _74
REMARK   31  A    between atoms: _74  and  _75
REMARK   32  A    between atoms: _74  and  _77
REMARK   33  A    between atoms: _77  and  _78
REMARK   34  A    between atoms: _80  and  _82
REMARK   35  A    between atoms: _82  and  _83
REMARK   36  A    between atoms: _82  and  _85
REMARK   37  A    between atoms: _85  and  _86
REMARK   38  A    between atoms: _88  and  _90
REMARK   39  A    between atoms: _90  and  _91
REMARK   40  A    between atoms: _90  and  _93
REMARK   41  A    between atoms: _93  and  _94
REMARK   42  A    between atoms: _94  and  _95
REMARK   43  A    between atoms: _95  and  _96
REMARK   44  A    between atoms: _96  and  _97
REMARK   45  A    between atoms: _101  and  _103
REMARK   46  A    between atoms: _103  and  _104
REMARK   47  A    between atoms: _107  and  _109
REMARK   48  A    between atoms: _109  and  _110
REMARK   49  A    between atoms: _109  and  _112
REMARK   50  A    between atoms: _115  and  _117
REMARK   51  A    between atoms: _117  and  _118
REMARK   52  A    between atoms: _117  and  _120
REMARK   53  A    between atoms: _120  and  _121
REMARK   54  A    between atoms: _124  and  _126
REMARK   55  A    between atoms: _126  and  _127
REMARK   56  A    between atoms: _126  and  _129
REMARK   57  A    between atoms: _129  and  _130
REMARK   58  A    between atoms: _130  and  _131
REMARK   59  A    between atoms: _131  and  _132
REMARK   60  A    between atoms: _132  and  _133
REMARK   61  A    between atoms: _137  and  _139
REMARK   62  A    between atoms: _139  and  _140
REMARK   63  A    between atoms: _139  and  _142
REMARK   64  A    between atoms: _142  and  _143
REMARK   65  A    between atoms: _153  and  _155
REMARK   66  A    between atoms: _155  and  _156
REMARK   67  A    between atoms: _155  and  _158
REMARK   68  A    between atoms: _158  and  _159
REMARK   69  A    between atoms: _162  and  _164
REMARK   70  A    between atoms: _164  and  _165
REMARK   71  A    between atoms: _164  and  _167
REMARK   72  A    between atoms: _167  and  _168
REMARK   73  A    between atoms: _168  and  _169
REMARK   74  A    between atoms: _169  and  _170
REMARK   75  A    between atoms: _179  and  _181
REMARK   76  A    between atoms: _181  and  _182
REMARK   77  A    between atoms: _181  and  _184
REMARK   78  A    between atoms: _184  and  _185
REMARK   79  A    between atoms: _191  and  _193
REMARK   80  A    between atoms: _193  and  _194
REMARK   81  A    between atoms: _193  and  _196
REMARK   82  A    between atoms: _196  and  _197
REMARK   83  A    between atoms: _200  and  _202
REMARK   84  A    between atoms: _202  and  _203
REMARK   85  A    between atoms: _202  and  _205
REMARK   86  A    between atoms: _205  and  _206
REMARK   87  A    between atoms: _211  and  _213
REMARK   88  A    between atoms: _213  and  _214
REMARK   89  A    between atoms: _213  and  _216
REMARK   90  A    between atoms: _216  and  _217
REMARK   91  A    between atoms: _221  and  _222
REMARK   92  A    between atoms: _227  and  _229
REMARK   93  A    between atoms: _229  and  _230
REMARK   94  A    between atoms: _229  and  _232
REMARK   95  A    between atoms: _232  and  _233
REMARK   96  A    between atoms: _236  and  _238
REMARK   97  A    between atoms: _238  and  _239
REMARK   98  A    between atoms: _238  and  _241
REMARK   99  A    between atoms: _241  and  _242
REMARK  100  A    between atoms: _245  and  _247
REMARK  101  A    between atoms: _247  and  _248
REMARK  102  A    between atoms: _247  and  _250
REMARK  103  A    between atoms: _250  and  _251
REMARK  104  A    between atoms: _254  and  _256
REMARK  105  A    between atoms: _256  and  _257
REMARK  106  A    between atoms: _256  and  _259
REMARK  107  A    between atoms: _259  and  _260
REMARK  108  A    between atoms: _260  and  _261
REMARK  109  A    between atoms: _261  and  _262
REMARK  110  A    between atoms: _262  and  _263
REMARK  111  A    between atoms: _267  and  _269
REMARK  112  A    between atoms: _269  and  _270
REMARK  113  A    between atoms: _269  and  _272
REMARK  114  A    between atoms: _272  and  _273
REMARK  115  A    between atoms: _273  and  _274
REMARK  116  A    between atoms: _277  and  _279
REMARK  117  A    between atoms: _279  and  _280
REMARK  118  A    between atoms: _279  and  _282
REMARK  119  A    between atoms: _282  and  _283
REMARK  120  A    between atoms: _283  and  _284
REMARK  121  A    between atoms: _284  and  _285
REMARK  122  A    between atoms: _294  and  _296
REMARK  123  A    between atoms: _296  and  _297
REMARK  124  A    between atoms: _296  and  _299
REMARK  125  A    between atoms: _299  and  _300
REMARK  126  A    between atoms: _303  and  _305
REMARK  127  A    between atoms: _305  and  _306
REMARK  128  A    between atoms: _310  and  _311
REMARK  129  A    between atoms: _316  and  _318
REMARK  130  A    between atoms: _318  and  _319
REMARK  131  A    between atoms: _322  and  _324
REMARK  132  A    between atoms: _324  and  _325
REMARK  133  A    between atoms: _324  and  _327
REMARK  134  A    between atoms: _327  and  _328
REMARK  135  A    between atoms: _338  and  _340
REMARK  136  A    between atoms: _340  and  _341
REMARK  137  A    between atoms: _340  and  _343
REMARK  138  A    between atoms: _343  and  _344
REMARK  139  A    between atoms: _347  and  _348
REMARK  140  A    between atoms: _353  and  _355
REMARK  141  A    between atoms: _355  and  _356
REMARK  142  A    between atoms: _355  and  _358
REMARK  143  A    between atoms: _358  and  _359
REMARK  144  A    between atoms: _359  and  _360
REMARK  145  A    between atoms: _360  and  _361
REMARK  146  A    between atoms: _370  and  _372
REMARK  147  A    between atoms: _372  and  _373
REMARK  148  A    between atoms: _372  and  _375
REMARK  149  A    between atoms: _375  and  _376
REMARK  150  A    between atoms: _379  and  _381
REMARK  151  A    between atoms: _381  and  _382
REMARK  152  A    between atoms: _381  and  _384
REMARK  153  A    between atoms: _384  and  _385
REMARK  154  A    between atoms: _388  and  _390
REMARK  155  A    between atoms: _390  and  _391
REMARK  156  A    between atoms: _390  and  _393
REMARK  157  A    between atoms: _393  and  _394
REMARK  158  A    between atoms: _397  and  _399
REMARK  159  A    between atoms: _399  and  _400
REMARK  160  A    between atoms: _399  and  _402
REMARK  161  A    between atoms: _402  and  _403
REMARK  162  A    between atoms: _406  and  _408
REMARK  163  A    between atoms: _408  and  _409
REMARK  164  A    between atoms: _408  and  _411
REMARK  165  A    between atoms: _411  and  _412
REMARK  166  A    between atoms: _415  and  _417
REMARK  167  A    between atoms: _417  and  _418
REMARK  168  A    between atoms: _417  and  _420
REMARK  169  A    between atoms: _420  and  _421
REMARK  170  A    between atoms: _424  and  _426
REMARK  171  A    between atoms: _426  and  _427
REMARK  172  A    between atoms: _430  and  _432
REMARK  173  A    between atoms: _432  and  _433
REMARK  174  A    between atoms: _432  and  _435
REMARK  175  A    between atoms: _435  and  _436
REMARK  176  A    between atoms: _439  and  _441
REMARK  177  A    between atoms: _441  and  _442
REMARK  178  A    between atoms: _441  and  _444
REMARK  179  A    between atoms: _444  and  _445
REMARK  180  A    between atoms: _448  and  _450
REMARK  181  A    between atoms: _450  and  _451
REMARK  182  A    between atoms: _450  and  _453
REMARK  183  A    between atoms: _453  and  _454
REMARK  184  A    between atoms: _457  and  _459
REMARK  185  A    between atoms: _459  and  _460
REMARK  186  A    between atoms: _459  and  _462
REMARK  187  A    between atoms: _462  and  _463
REMARK  188  A    between atoms: _463  and  _464
REMARK  189  A    between atoms: _464  and  _465
REMARK  190  A    between atoms: _465  and  _466
REMARK  191  A    between atoms: _470  and  _472
REMARK  192  A    between atoms: _472  and  _473
REMARK  193  A    between atoms: _472  and  _475
REMARK  194  A    between atoms: _475  and  _476
REMARK  195  A    between atoms: _479  and  _481
REMARK  196  A    between atoms: _481  and  _482
REMARK  197  A    between atoms: _481  and  _484
REMARK  198  A    between atoms: _484  and  _485
REMARK  199  A    between atoms: _488  and  _490
REMARK  200  A    between atoms: _490  and  _491
REMARK  201  A    between atoms: _490  and  _493
REMARK  202  A    between atoms: _493  and  _494
REMARK  203  A    between atoms: _498  and  _499
REMARK  204  A    between atoms: _504  and  _506
REMARK  205  A    between atoms: _506  and  _507
REMARK  206  A    between atoms: _506  and  _509
REMARK  207  A    between atoms: _509  and  _510
REMARK  208  A    between atoms: _515  and  _517
REMARK  209  A    between atoms: _517  and  _518
REMARK  210  A    between atoms: _517  and  _520
REMARK  211  A    between atoms: _520  and  _521
REMARK  212  A    between atoms: _521  and  _522
REMARK  213  A    between atoms: _522  and  _523
REMARK  214  A    between atoms: _523  and  _524
REMARK  215  A    between atoms: _528  and  _530
REMARK  216  A    between atoms: _530  and  _531
REMARK  217  A    between atoms: _530  and  _533
REMARK  218  A    between atoms: _533  and  _534
REMARK  219  A    between atoms: _534  and  _535
REMARK  220  A    between atoms: _538  and  _540
REMARK  221  A    between atoms: _540  and  _541
REMARK  222  A    between atoms: _540  and  _543
REMARK  223  A    between atoms: _543  and  _544
REMARK  224  A    between atoms: _547  and  _549
REMARK  225  A    between atoms: _549  and  _550
REMARK  226  A    between atoms: _549  and  _552
REMARK  227  A    between atoms: _552  and  _553
REMARK  228  A    between atoms: _553  and  _554
REMARK  229  A    between atoms: _554  and  _555
REMARK  230  A    between atoms: _564  and  _566
REMARK  231  A    between atoms: _566  and  _567
REMARK  232  A    between atoms: _566  and  _569
REMARK  233  A    between atoms: _569  and  _570
REMARK  234  A    between atoms: _572  and  _574
REMARK  235  A    between atoms: _574  and  _575
REMARK  236  A    between atoms: _574  and  _577
REMARK  237  A    between atoms: _577  and  _578
REMARK  238  A    between atoms: _584  and  _586
REMARK  239  A    between atoms: _586  and  _587
REMARK  240  A    between atoms: _590  and  _592
REMARK  241  A    between atoms: _592  and  _593
REMARK  242  A    between atoms: _592  and  _595
REMARK  243  A    between atoms: _595  and  _596
REMARK  244  A    between atoms: _596  and  _597
REMARK  245  A    between atoms: _600  and  _602
REMARK  246  A    between atoms: _602  and  _603
REMARK  247  A    between atoms: _602  and  _605
REMARK  248  A    between atoms: _605  and  _606
REMARK                            x       y       z     vdW  Elec       q    Type
REMARK                         _______ _______ _______ _____ _____    ______ ____
ROOT
ATOM      1  O   HOH     1       5.658  26.777  -5.910  0.00  0.00    +0.000 OA
ENDROOT
TORSDOF 0
REMARK  Name = ../refined-set-2016/4pzv/4pzv_pocket.pdb
REMARK  248 active torsions:
REMARK  status: ('A' for Active; 'I' for Inactive)
REMARK    1  A    between atoms: _1  and  _3
REMARK    2  A    between atoms: _3  and  _4
REMARK    3  A    between atoms: _3  and  _6
REMARK    4  A    between atoms: _6  and  _7
REMARK    5  A    between atoms: _10  and  _12
REMARK    6  A    between atoms: _12  and  _13
REMARK    7  A    between atoms: _12  and  _15
REMARK    8  A    between atoms: _15  and  _16
REMARK    9  A    between atoms: _19  and  _21
REMARK   10  A    between atoms: _21  and  _22
REMARK   11  A    between atoms: _24  and  _26
REMARK   12  A    between atoms: _26  and  _27
REMARK   13  A    between atoms: _26  and  _29
REMARK   14  A    between atoms: _29  and  _30
REMARK   15  A    between atoms: _33  and  _35
REMARK   16  A    between atoms: _35  and  _36
REMARK   17  A    between atoms: _38  and  _40
REMARK   18  A    between atoms: _40  and  _41
REMARK   19  A    between atoms: _40  and  _43
REMARK   20  A    between atoms: _43  and  _44
REMARK   21  A    between atoms: _47  and  _49
REMARK   22  A    between atoms: _49  and  _50
REMARK   23  A    between atoms: _49  and  _52
REMARK   24  A    between atoms: _52  and  _53
REMARK   25  A    between atoms: _58  and  _60
REMARK   26  A    between atoms: _60  and  _61
REMARK   27  A    between atoms: _60  and  _63
REMARK   28  A    between atoms: _63  and  _64
REMARK   29  A    between atoms: _69  and  _70
REMARK   30  A    between atoms: _72  and  _74
REMARK   31  A    between atoms: _74  and  _75
REMARK   32  A    between atoms: _74  and  _77
REMARK   33  A    between atoms: _77  and  _78
REMARK   34  A    between atoms: _80  and  _82
REMARK   35  A    between atoms: _82  and  _83
REMARK   36  A    between atoms: _82  and  _85
REMARK   37  A    between atoms: _85  and  _86
REMARK   38  A    between atoms: _88  and  _90
REMARK   39  A    between atoms: _90  and  _91
REMARK   40  A    between atoms: _90  and  _93
REMARK   41  A    between atoms: _93  and  _94
REMARK   42  A    between atoms: _94  and  _95
REMARK   43  A    between atoms: _95  and  _96
REMARK   44  A    between atoms: _96  and  _97
REMARK   45  A    between atoms: _101  and  _103
REMARK   46  A    between atoms: _103  and  _104
REMARK   47  A    between atoms: _107  and  _109
REMARK   48  A    between atoms: _109  and  _110
REMARK   49  A    between atoms: _109  and  _112
REMARK   50  A    between atoms: _115  and  _117
REMARK   51  A    between atoms: _117  and  _118
REMARK   52  A    between atoms: _117  and  _120
REMARK   53  A    between atoms: _120  and  _121
REMARK   54  A    between atoms: _124  and  _126
REMARK   55  A    between atoms: _126  and  _127
REMARK   56  A    between atoms: _126  and  _129
REMARK   57  A    between atoms: _129  and  _130
REMARK   58  A    between atoms: _130  and  _131
REMARK   59  A    between atoms: _131  and  _132
REMARK   60  A    between atoms: _132  and  _133
REMARK   61  A    between atoms: _137  and  _139
REMARK   62  A    between atoms: _139  and  _140
REMARK   63  A    between atoms: _139  and  _142
REMARK   64  A    between atoms: _142  and  _143
REMARK   65  A    between atoms: _153  and  _155
REMARK   66  A    between atoms: _155  and  _156
REMARK   67  A    between atoms: _155  and  _158
REMARK   68  A    between atoms: _158  and  _159
REMARK   69  A    between atoms: _162  and  _164
REMARK   70  A    between atoms: _164  and  _165
REMARK   71  A    between atoms: _164  and  _167
REMARK   72  A    between atoms: _167  and  _168
REMARK   73  A    between atoms: _168  and  _169
REMARK   74  A    between atoms: _169  and  _170
REMARK   75  A    between atoms: _179  and  _181
REMARK   76  A    between atoms: _181  and  _182
REMARK   77  A    between atoms: _181  and  _184
REMARK   78  A    between atoms: _184  and  _185
REMARK   79  A    between atoms: _191  and  _193
REMARK   80  A    between atoms: _193  and  _194
REMARK   81  A    between atoms: _193  and  _196
REMARK   82  A    between atoms: _196  and  _197
REMARK   83  A    between atoms: _200  and  _202
REMARK   84  A    between atoms: _202  and  _203
REMARK   85  A    between atoms: _202  and  _205
REMARK   86  A    between atoms: _205  and  _206
REMARK   87  A    between atoms: _211  and  _213
REMARK   88  A    between atoms: _213  and  _214
REMARK   89  A    between atoms: _213  and  _216
REMARK   90  A    between atoms: _216  and  _217
REMARK   91  A    between atoms: _221  and  _222
REMARK   92  A    between atoms: _227  and  _229
REMARK   93  A    between atoms: _229  and  _230
REMARK   94  A    between atoms: _229  and  _232
REMARK   95  A    between atoms: _232  and  _233
REMARK   96  A    between atoms: _236  and  _238
REMARK   97  A    between atoms: _238  and  _239
REMARK   98  A    between atoms: _238  and  _241
REMARK   99  A    between atoms: _241  and  _242
REMARK  100  A    between atoms: _245  and  _247
REMARK  101  A    between atoms: _247  and  _248
REMARK  102  A    between atoms: _247  and  _250
REMARK  103  A    between atoms: _250  and  _251
REMARK  104  A    between atoms: _254  and  _256
REMARK  105  A    between atoms: _256  and  _257
REMARK  106  A    between atoms: _256  and  _259
REMARK  107  A    between atoms: _259  and  _260
REMARK  108  A    between atoms: _260  and  _261
REMARK  109  A    between atoms: _261  and  _262
REMARK  110  A    between atoms: _262  and  _263
REMARK  111  A    between atoms: _267  and  _269
REMARK  112  A    between atoms: _269  and  _270
REMARK  113  A    between atoms: _269  and  _272
REMARK  114  A    between atoms: _272  and  _273
REMARK  115  A    between atoms: _273  and  _274
REMARK  116  A    between atoms: _277  and  _279
REMARK  117  A    between atoms: _279  and  _280
REMARK  118  A    between atoms: _279  and  _282
REMARK  119  A    between atoms: _282  and  _283
REMARK  120  A    between atoms: _283  and  _284
REMARK  121  A    between atoms: _284  and  _285
REMARK  122  A    between atoms: _294  and  _296
REMARK  123  A    between atoms: _296  and  _297
REMARK  124  A    between atoms: _296  and  _299
REMARK  125  A    between atoms: _299  and  _300
REMARK  126  A    between atoms: _303  and  _305
REMARK  127  A    between atoms: _305  and  _306
REMARK  128  A    between atoms: _310  and  _311
REMARK  129  A    between atoms: _316  and  _318
REMARK  130  A    between atoms: _318  and  _319
REMARK  131  A    between atoms: _322  and  _324
REMARK  132  A    between atoms: _324  and  _325
REMARK  133  A    between atoms: _324  and  _327
REMARK  134  A    between atoms: _327  and  _328
REMARK  135  A    between atoms: _338  and  _340
REMARK  136  A    between atoms: _340  and  _341
REMARK  137  A    between atoms: _340  and  _343
REMARK  138  A    between atoms: _343  and  _344
REMARK  139  A    between atoms: _347  and  _348
REMARK  140  A    between atoms: _353  and  _355
REMARK  141  A    between atoms: _355  and  _356
REMARK  142  A    between atoms: _355  and  _358
REMARK  143  A    between atoms: _358  and  _359
REMARK  144  A    between atoms: _359  and  _360
REMARK  145  A    between atoms: _360  and  _361
REMARK  146  A    between atoms: _370  and  _372
REMARK  147  A    between atoms: _372  and  _373
REMARK  148  A    between atoms: _372  and  _375
REMARK  149  A    between atoms: _375  and  _376
REMARK  150  A    between atoms: _379  and  _381
REMARK  151  A    between atoms: _381  and  _382
REMARK  152  A    between atoms: _381  and  _384
REMARK  153  A    between atoms: _384  and  _385
REMARK  154  A    between atoms: _388  and  _390
REMARK  155  A    between atoms: _390  and  _391
REMARK  156  A    between atoms: _390  and  _393
REMARK  157  A    between atoms: _393  and  _394
REMARK  158  A    between atoms: _397  and  _399
REMARK  159  A    between atoms: _399  and  _400
REMARK  160  A    between atoms: _399  and  _402
REMARK  161  A    between atoms: _402  and  _403
REMARK  162  A    between atoms: _406  and  _408
REMARK  163  A    between atoms: _408  and  _409
REMARK  164  A    between atoms: _408  and  _411
REMARK  165  A    between atoms: _411  and  _412
REMARK  166  A    between atoms: _415  and  _417
REMARK  167  A    between atoms: _417  and  _418
REMARK  168  A    between atoms: _417  and  _420
REMARK  169  A    between atoms: _420  and  _421
REMARK  170  A    between atoms: _424  and  _426
REMARK  171  A    between atoms: _426  and  _427
REMARK  172  A    between atoms: _430  and  _432
REMARK  173  A    between atoms: _432  and  _433
REMARK  174  A    between atoms: _432  and  _435
REMARK  175  A    between atoms: _435  and  _436
REMARK  176  A    between atoms: _439  and  _441
REMARK  177  A    between atoms: _441  and  _442
REMARK  178  A    between atoms: _441  and  _444
REMARK  179  A    between atoms: _444  and  _445
REMARK  180  A    between atoms: _448  and  _450
REMARK  181  A    between atoms: _450  and  _451
REMARK  182  A    between atoms: _450  and  _453
REMARK  183  A    between atoms: _453  and  _454
REMARK  184  A    between atoms: _457  and  _459
REMARK  185  A    between atoms: _459  and  _460
REMARK  186  A    between atoms: _459  and  _462
REMARK  187  A    between atoms: _462  and  _463
REMARK  188  A    between atoms: _463  and  _464
REMARK  189  A    between atoms: _464  and  _465
REMARK  190  A    between atoms: _465  and  _466
REMARK  191  A    between atoms: _470  and  _472
REMARK  192  A    between atoms: _472  and  _473
REMARK  193  A    between atoms: _472  and  _475
REMARK  194  A    between atoms: _475  and  _476
REMARK  195  A    between atoms: _479  and  _481
REMARK  196  A    between atoms: _481  and  _482
REMARK  197  A    between atoms: _481  and  _484
REMARK  198  A    between atoms: _484  and  _485
REMARK  199  A    between atoms: _488  and  _490
REMARK  200  A    between atoms: _490  and  _491
REMARK  201  A    between atoms: _490  and  _493
REMARK  202  A    between atoms: _493  and  _494
REMARK  203  A    between atoms: _498  and  _499
REMARK  204  A    between atoms: _504  and  _506
REMARK  205  A    between atoms: _506  and  _507
REMARK  206  A    between atoms: _506  and  _509
REMARK  207  A    between atoms: _509  and  _510
REMARK  208  A    between atoms: _515  and  _517
REMARK  209  A    between atoms: _517  and  _518
REMARK  210  A    between atoms: _517  and  _520
REMARK  211  A    between atoms: _520  and  _521
REMARK  212  A    between atoms: _521  and  _522
REMARK  213  A    between atoms: _522  and  _523
REMARK  214  A    between atoms: _523  and  _524
REMARK  215  A    between atoms: _528  and  _530
REMARK  216  A    between atoms: _530  and  _531
REMARK  217  A    between atoms: _530  and  _533
REMARK  218  A    between atoms: _533  and  _534
REMARK  219  A    between atoms: _534  and  _535
REMARK  220  A    between atoms: _538  and  _540
REMARK  221  A    between atoms: _540  and  _541
REMARK  222  A    between atoms: _540  and  _543
REMARK  223  A    between atoms: _543  and  _544
REMARK  224  A    between atoms: _547  and  _549
REMARK  225  A    between atoms: _549  and  _550
REMARK  226  A    between atoms: _549  and  _552
REMARK  227  A    between atoms: _552  and  _553
REMARK  228  A    between atoms: _553  and  _554
REMARK  229  A    between atoms: _554  and  _555
REMARK  230  A    between atoms: _564  and  _566
REMARK  231  A    between atoms: _566  and  _567
REMARK  232  A    between atoms: _566  and  _569
REMARK  233  A    between atoms: _569  and  _570
REMARK  234  A    between atoms: _572  and  _574
REMARK  235  A    between atoms: _574  and  _575
REMARK  236  A    between atoms: _574  and  _577
REMARK  237  A    between atoms: _577  and  _578
REMARK  238  A    between atoms: _584  and  _586
REMARK  239  A    between atoms: _586  and  _587
REMARK  240  A    between atoms: _590  and  _592
REMARK  241  A    between atoms: _592  and  _593
REMARK  242  A    between atoms: _592  and  _595
REMARK  243  A    between atoms: _595  and  _596
REMARK  244  A    between atoms: _596  and  _597
REMARK  245  A    between atoms: _600  and  _602
REMARK  246  A    between atoms: _602  and  _603
REMARK  247  A    between atoms: _602  and  _605
REMARK  248  A    between atoms: _605  and  _606
REMARK                            x       y       z     vdW  Elec       q    Type
REMARK                         _______ _______ _______ _____ _____    ______ ____
ROOT
ATOM      1  O   HOH     1       2.048  24.276  -6.842  0.00  0.00    +0.000 OA
ENDROOT
TORSDOF 0
REMARK  Name = ../refined-set-2016/4pzv/4pzv_pocket.pdb
REMARK  248 active torsions:
REMARK  status: ('A' for Active; 'I' for Inactive)
REMARK    1  A    between atoms: _1  and  _3
REMARK    2  A    between atoms: _3  and  _4
REMARK    3  A    between atoms: _3  and  _6
REMARK    4  A    between atoms: _6  and  _7
REMARK    5  A    between atoms: _10  and  _12
REMARK    6  A    between atoms: _12  and  _13
REMARK    7  A    between atoms: _12  and  _15
REMARK    8  A    between atoms: _15  and  _16
REMARK    9  A    between atoms: _19  and  _21
REMARK   10  A    between atoms: _21  and  _22
REMARK   11  A    between atoms: _24  and  _26
REMARK   12  A    between atoms: _26  and  _27
REMARK   13  A    between atoms: _26  and  _29
REMARK   14  A    between atoms: _29  and  _30
REMARK   15  A    between atoms: _33  and  _35
REMARK   16  A    between atoms: _35  and  _36
REMARK   17  A    between atoms: _38  and  _40
REMARK   18  A    between atoms: _40  and  _41
REMARK   19  A    between atoms: _40  and  _43
REMARK   20  A    between atoms: _43  and  _44
REMARK   21  A    between atoms: _47  and  _49
REMARK   22  A    between atoms: _49  and  _50
REMARK   23  A    between atoms: _49  and  _52
REMARK   24  A    between atoms: _52  and  _53
REMARK   25  A    between atoms: _58  and  _60
REMARK   26  A    between atoms: _60  and  _61
REMARK   27  A    between atoms: _60  and  _63
REMARK   28  A    between atoms: _63  and  _64
REMARK   29  A    between atoms: _69  and  _70
REMARK   30  A    between atoms: _72  and  _74
REMARK   31  A    between atoms: _74  and  _75
REMARK   32  A    between atoms: _74  and  _77
REMARK   33  A    between atoms: _77  and  _78
REMARK   34  A    between atoms: _80  and  _82
REMARK   35  A    between atoms: _82  and  _83
REMARK   36  A    between atoms: _82  and  _85
REMARK   37  A    between atoms: _85  and  _86
REMARK   38  A    between atoms: _88  and  _90
REMARK   39  A    between atoms: _90  and  _91
REMARK   40  A    between atoms: _90  and  _93
REMARK   41  A    between atoms: _93  and  _94
REMARK   42  A    between atoms: _94  and  _95
REMARK   43  A    between atoms: _95  and  _96
REMARK   44  A    between atoms: _96  and  _97
REMARK   45  A    between atoms: _101  and  _103
REMARK   46  A    between atoms: _103  and  _104
REMARK   47  A    between atoms: _107  and  _109
REMARK   48  A    between atoms: _109  and  _110
REMARK   49  A    between atoms: _109  and  _112
REMARK   50  A    between atoms: _115  and  _117
REMARK   51  A    between atoms: _117  and  _118
REMARK   52  A    between atoms: _117  and  _120
REMARK   53  A    between atoms: _120  and  _121
REMARK   54  A    between atoms: _124  and  _126
REMARK   55  A    between atoms: _126  and  _127
REMARK   56  A    between atoms: _126  and  _129
REMARK   57  A    between atoms: _129  and  _130
REMARK   58  A    between atoms: _130  and  _131
REMARK   59  A    between atoms: _131  and  _132
REMARK   60  A    between atoms: _132  and  _133
REMARK   61  A    between atoms: _137  and  _139
REMARK   62  A    between atoms: _139  and  _140
REMARK   63  A    between atoms: _139  and  _142
REMARK   64  A    between atoms: _142  and  _143
REMARK   65  A    between atoms: _153  and  _155
REMARK   66  A    between atoms: _155  and  _156
REMARK   67  A    between atoms: _155  and  _158
REMARK   68  A    between atoms: _158  and  _159
REMARK   69  A    between atoms: _162  and  _164
REMARK   70  A    between atoms: _164  and  _165
REMARK   71  A    between atoms: _164  and  _167
REMARK   72  A    between atoms: _167  and  _168
REMARK   73  A    between atoms: _168  and  _169
REMARK   74  A    between atoms: _169  and  _170
REMARK   75  A    between atoms: _179  and  _181
REMARK   76  A    between atoms: _181  and  _182
REMARK   77  A    between atoms: _181  and  _184
REMARK   78  A    between atoms: _184  and  _185
REMARK   79  A    between atoms: _191  and  _193
REMARK   80  A    between atoms: _193  and  _194
REMARK   81  A    between atoms: _193  and  _196
REMARK   82  A    between atoms: _196  and  _197
REMARK   83  A    between atoms: _200  and  _202
REMARK   84  A    between atoms: _202  and  _203
REMARK   85  A    between atoms: _202  and  _205
REMARK   86  A    between atoms: _205  and  _206
REMARK   87  A    between atoms: _211  and  _213
REMARK   88  A    between atoms: _213  and  _214
REMARK   89  A    between atoms: _213  and  _216
REMARK   90  A    between atoms: _216  and  _217
REMARK   91  A    between atoms: _221  and  _222
REMARK   92  A    between atoms: _227  and  _229
REMARK   93  A    between atoms: _229  and  _230
REMARK   94  A    between atoms: _229  and  _232
REMARK   95  A    between atoms: _232  and  _233
REMARK   96  A    between atoms: _236  and  _238
REMARK   97  A    between atoms: _238  and  _239
REMARK   98  A    between atoms: _238  and  _241
REMARK   99  A    between atoms: _241  and  _242
REMARK  100  A    between atoms: _245  and  _247
REMARK  101  A    between atoms: _247  and  _248
REMARK  102  A    between atoms: _247  and  _250
REMARK  103  A    between atoms: _250  and  _251
REMARK  104  A    between atoms: _254  and  _256
REMARK  105  A    between atoms: _256  and  _257
REMARK  106  A    between atoms: _256  and  _259
REMARK  107  A    between atoms: _259  and  _260
REMARK  108  A    between atoms: _260  and  _261
REMARK  109  A    between atoms: _261  and  _262
REMARK  110  A    between atoms: _262  and  _263
REMARK  111  A    between atoms: _267  and  _269
REMARK  112  A    between atoms: _269  and  _270
REMARK  113  A    between atoms: _269  and  _272
REMARK  114  A    between atoms: _272  and  _273
REMARK  115  A    between atoms: _273  and  _274
REMARK  116  A    between atoms: _277  and  _279
REMARK  117  A    between atoms: _279  and  _280
REMARK  118  A    between atoms: _279  and  _282
REMARK  119  A    between atoms: _282  and  _283
REMARK  120  A    between atoms: _283  and  _284
REMARK  121  A    between atoms: _284  and  _285
REMARK  122  A    between atoms: _294  and  _296
REMARK  123  A    between atoms: _296  and  _297
REMARK  124  A    between atoms: _296  and  _299
REMARK  125  A    between atoms: _299  and  _300
REMARK  126  A    between atoms: _303  and  _305
REMARK  127  A    between atoms: _305  and  _306
REMARK  128  A    between atoms: _310  and  _311
REMARK  129  A    between atoms: _316  and  _318
REMARK  130  A    between atoms: _318  and  _319
REMARK  131  A    between atoms: _322  and  _324
REMARK  132  A    between atoms: _324  and  _325
REMARK  133  A    between atoms: _324  and  _327
REMARK  134  A    between atoms: _327  and  _328
REMARK  135  A    between atoms: _338  and  _340
REMARK  136  A    between atoms: _340  and  _341
REMARK  137  A    between atoms: _340  and  _343
REMARK  138  A    between atoms: _343  and  _344
REMARK  139  A    between atoms: _347  and  _348
REMARK  140  A    between atoms: _353  and  _355
REMARK  141  A    between atoms: _355  and  _356
REMARK  142  A    between atoms: _355  and  _358
REMARK  143  A    between atoms: _358  and  _359
REMARK  144  A    between atoms: _359  and  _360
REMARK  145  A    between atoms: _360  and  _361
REMARK  146  A    between atoms: _370  and  _372
REMARK  147  A    between atoms: _372  and  _373
REMARK  148  A    between atoms: _372  and  _375
REMARK  149  A    between atoms: _375  and  _376
REMARK  150  A    between atoms: _379  and  _381
REMARK  151  A    between atoms: _381  and  _382
REMARK  152  A    between atoms: _381  and  _384
REMARK  153  A    between atoms: _384  and  _385
REMARK  154  A    between atoms: _388  and  _390
REMARK  155  A    between atoms: _390  and  _391
REMARK  156  A    between atoms: _390  and  _393
REMARK  157  A    between atoms: _393  and  _394
REMARK  158  A    between atoms: _397  and  _399
REMARK  159  A    between atoms: _399  and  _400
REMARK  160  A    between atoms: _399  and  _402
REMARK  161  A    between atoms: _402  and  _403
REMARK  162  A    between atoms: _406  and  _408
REMARK  163  A    between atoms: _408  and  _409
REMARK  164  A    between atoms: _408  and  _411
REMARK  165  A    between atoms: _411  and  _412
REMARK  166  A    between atoms: _415  and  _417
REMARK  167  A    between atoms: _417  and  _418
REMARK  168  A    between atoms: _417  and  _420
REMARK  169  A    between atoms: _420  and  _421
REMARK  170  A    between atoms: _424  and  _426
REMARK  171  A    between atoms: _426  and  _427
REMARK  172  A    between atoms: _430  and  _432
REMARK  173  A    between atoms: _432  and  _433
REMARK  174  A    between atoms: _432  and  _435
REMARK  175  A    between atoms: _435  and  _436
REMARK  176  A    between atoms: _439  and  _441
REMARK  177  A    between atoms: _441  and  _442
REMARK  178  A    between atoms: _441  and  _444
REMARK  179  A    between atoms: _444  and  _445
REMARK  180  A    between atoms: _448  and  _450
REMARK  181  A    between atoms: _450  and  _451
REMARK  182  A    between atoms: _450  and  _453
REMARK  183  A    between atoms: _453  and  _454
REMARK  184  A    between atoms: _457  and  _459
REMARK  185  A    between atoms: _459  and  _460
REMARK  186  A    between atoms: _459  and  _462
REMARK  187  A    between atoms: _462  and  _463
REMARK  188  A    between atoms: _463  and  _464
REMARK  189  A    between atoms: _464  and  _465
REMARK  190  A    between atoms: _465  and  _466
REMARK  191  A    between atoms: _470  and  _472
REMARK  192  A    between atoms: _472  and  _473
REMARK  193  A    between atoms: _472  and  _475
REMARK  194  A    between atoms: _475  and  _476
REMARK  195  A    between atoms: _479  and  _481
REMARK  196  A    between atoms: _481  and  _482
REMARK  197  A    between atoms: _481  and  _484
REMARK  198  A    between atoms: _484  and  _485
REMARK  199  A    between atoms: _488  and  _490
REMARK  200  A    between atoms: _490  and  _491
REMARK  201  A    between atoms: _490  and  _493
REMARK  202  A    between atoms: _493  and  _494
REMARK  203  A    between atoms: _498  and  _499
REMARK  204  A    between atoms: _504  and  _506
REMARK  205  A    between atoms: _506  and  _507
REMARK  206  A    between atoms: _506  and  _509
REMARK  207  A    between atoms: _509  and  _510
REMARK  208  A    between atoms: _515  and  _517
REMARK  209  A    between atoms: _517  and  _518
REMARK  210  A    between atoms: _517  and  _520
REMARK  211  A    between atoms: _520  and  _521
REMARK  212  A    between atoms: _521  and  _522
REMARK  213  A    between atoms: _522  and  _523
REMARK  214  A    between atoms: _523  and  _524
REMARK  215  A    between atoms: _528  and  _530
REMARK  216  A    between atoms: _530  and  _531
REMARK  217  A    between atoms: _530  and  _533
REMARK  218  A    between atoms: _533  and  _534
REMARK  219  A    between atoms: _534  and  _535
REMARK  220  A    between atoms: _538  and  _540
REMARK  221  A    between atoms: _540  and  _541
REMARK  222  A    between atoms: _540  and  _543
REMARK  223  A    between atoms: _543  and  _544
REMARK  224  A    between atoms: _547  and  _549
REMARK  225  A    between atoms: _549  and  _550
REMARK  226  A    between atoms: _549  and  _552
REMARK  227  A    between atoms: _552  and  _553
REMARK  228  A    between atoms: _553  and  _554
REMARK  229  A    between atoms: _554  and  _555
REMARK  230  A    between atoms: _564  and  _566
REMARK  231  A    between atoms: _566  and  _567
REMARK  232  A    between atoms: _566  and  _569
REMARK  233  A    between atoms: _569  and  _570
REMARK  234  A    between atoms: _572  and  _574
REMARK  235  A    between atoms: _574  and  _575
REMARK  236  A    between atoms: _574  and  _577
REMARK  237  A    between atoms: _577  and  _578
REMARK  238  A    between atoms: _584  and  _586
REMARK  239  A    between atoms: _586  and  _587
REMARK  240  A    between atoms: _590  and  _592
REMARK  241  A    between atoms: _592  and  _593
REMARK  242  A    between atoms: _592  and  _595
REMARK  243  A    between atoms: _595  and  _596
REMARK  244  A    between atoms: _596  and  _597
REMARK  245  A    between atoms: _600  and  _602
REMARK  246  A    between atoms: _602  and  _603
REMARK  247  A    between atoms: _602  and  _605
REMARK  248  A    between atoms: _605  and  _606
REMARK                            x       y       z     vdW  Elec       q    Type
REMARK                         _______ _______ _______ _____ _____    ______ ____
ROOT
ATOM      1  O   HOH     1     -11.376  30.589 -11.937  0.00  0.00    +0.000 OA
ENDROOT
TORSDOF 0
REMARK  Name = ../refined-set-2016/4pzv/4pzv_pocket.pdb
REMARK  248 active torsions:
REMARK  status: ('A' for Active; 'I' for Inactive)
REMARK    1  A    between atoms: _1  and  _3
REMARK    2  A    between atoms: _3  and  _4
REMARK    3  A    between atoms: _3  and  _6
REMARK    4  A    between atoms: _6  and  _7
REMARK    5  A    between atoms: _10  and  _12
REMARK    6  A    between atoms: _12  and  _13
REMARK    7  A    between atoms: _12  and  _15
REMARK    8  A    between atoms: _15  and  _16
REMARK    9  A    between atoms: _19  and  _21
REMARK   10  A    between atoms: _21  and  _22
REMARK   11  A    between atoms: _24  and  _26
REMARK   12  A    between atoms: _26  and  _27
REMARK   13  A    between atoms: _26  and  _29
REMARK   14  A    between atoms: _29  and  _30
REMARK   15  A    between atoms: _33  and  _35
REMARK   16  A    between atoms: _35  and  _36
REMARK   17  A    between atoms: _38  and  _40
REMARK   18  A    between atoms: _40  and  _41
REMARK   19  A    between atoms: _40  and  _43
REMARK   20  A    between atoms: _43  and  _44
REMARK   21  A    between atoms: _47  and  _49
REMARK   22  A    between atoms: _49  and  _50
REMARK   23  A    between atoms: _49  and  _52
REMARK   24  A    between atoms: _52  and  _53
REMARK   25  A    between atoms: _58  and  _60
REMARK   26  A    between atoms: _60  and  _61
REMARK   27  A    between atoms: _60  and  _63
REMARK   28  A    between atoms: _63  and  _64
REMARK   29  A    between atoms: _69  and  _70
REMARK   30  A    between atoms: _72  and  _74
REMARK   31  A    between atoms: _74  and  _75
REMARK   32  A    between atoms: _74  and  _77
REMARK   33  A    between atoms: _77  and  _78
REMARK   34  A    between atoms: _80  and  _82
REMARK   35  A    between atoms: _82  and  _83
REMARK   36  A    between atoms: _82  and  _85
REMARK   37  A    between atoms: _85  and  _86
REMARK   38  A    between atoms: _88  and  _90
REMARK   39  A    between atoms: _90  and  _91
REMARK   40  A    between atoms: _90  and  _93
REMARK   41  A    between atoms: _93  and  _94
REMARK   42  A    between atoms: _94  and  _95
REMARK   43  A    between atoms: _95  and  _96
REMARK   44  A    between atoms: _96  and  _97
REMARK   45  A    between atoms: _101  and  _103
REMARK   46  A    between atoms: _103  and  _104
REMARK   47  A    between atoms: _107  and  _109
REMARK   48  A    between atoms: _109  and  _110
REMARK   49  A    between atoms: _109  and  _112
REMARK   50  A    between atoms: _115  and  _117
REMARK   51  A    between atoms: _117  and  _118
REMARK   52  A    between atoms: _117  and  _120
REMARK   53  A    between atoms: _120  and  _121
REMARK   54  A    between atoms: _124  and  _126
REMARK   55  A    between atoms: _126  and  _127
REMARK   56  A    between atoms: _126  and  _129
REMARK   57  A    between atoms: _129  and  _130
REMARK   58  A    between atoms: _130  and  _131
REMARK   59  A    between atoms: _131  and  _132
REMARK   60  A    between atoms: _132  and  _133
REMARK   61  A    between atoms: _137  and  _139
REMARK   62  A    between atoms: _139  and  _140
REMARK   63  A    between atoms: _139  and  _142
REMARK   64  A    between atoms: _142  and  _143
REMARK   65  A    between atoms: _153  and  _155
REMARK   66  A    between atoms: _155  and  _156
REMARK   67  A    between atoms: _155  and  _158
REMARK   68  A    between atoms: _158  and  _159
REMARK   69  A    between atoms: _162  and  _164
REMARK   70  A    between atoms: _164  and  _165
REMARK   71  A    between atoms: _164  and  _167
REMARK   72  A    between atoms: _167  and  _168
REMARK   73  A    between atoms: _168  and  _169
REMARK   74  A    between atoms: _169  and  _170
REMARK   75  A    between atoms: _179  and  _181
REMARK   76  A    between atoms: _181  and  _182
REMARK   77  A    between atoms: _181  and  _184
REMARK   78  A    between atoms: _184  and  _185
REMARK   79  A    between atoms: _191  and  _193
REMARK   80  A    between atoms: _193  and  _194
REMARK   81  A    between atoms: _193  and  _196
REMARK   82  A    between atoms: _196  and  _197
REMARK   83  A    between atoms: _200  and  _202
REMARK   84  A    between atoms: _202  and  _203
REMARK   85  A    between atoms: _202  and  _205
REMARK   86  A    between atoms: _205  and  _206
REMARK   87  A    between atoms: _211  and  _213
REMARK   88  A    between atoms: _213  and  _214
REMARK   89  A    between atoms: _213  and  _216
REMARK   90  A    between atoms: _216  and  _217
REMARK   91  A    between atoms: _221  and  _222
REMARK   92  A    between atoms: _227  and  _229
REMARK   93  A    between atoms: _229  and  _230
REMARK   94  A    between atoms: _229  and  _232
REMARK   95  A    between atoms: _232  and  _233
REMARK   96  A    between atoms: _236  and  _238
REMARK   97  A    between atoms: _238  and  _239
REMARK   98  A    between atoms: _238  and  _241
REMARK   99  A    between atoms: _241  and  _242
REMARK  100  A    between atoms: _245  and  _247
REMARK  101  A    between atoms: _247  and  _248
REMARK  102  A    between atoms: _247  and  _250
REMARK  103  A    between atoms: _250  and  _251
REMARK  104  A    between atoms: _254  and  _256
REMARK  105  A    between atoms: _256  and  _257
REMARK  106  A    between atoms: _256  and  _259
REMARK  107  A    between atoms: _259  and  _260
REMARK  108  A    between atoms: _260  and  _261
REMARK  109  A    between atoms: _261  and  _262
REMARK  110  A    between atoms: _262  and  _263
REMARK  111  A    between atoms: _267  and  _269
REMARK  112  A    between atoms: _269  and  _270
REMARK  113  A    between atoms: _269  and  _272
REMARK  114  A    between atoms: _272  and  _273
REMARK  115  A    between atoms: _273  and  _274
REMARK  116  A    between atoms: _277  and  _279
REMARK  117  A    between atoms: _279  and  _280
REMARK  118  A    between atoms: _279  and  _282
REMARK  119  A    between atoms: _282  and  _283
REMARK  120  A    between atoms: _283  and  _284
REMARK  121  A    between atoms: _284  and  _285
REMARK  122  A    between atoms: _294  and  _296
REMARK  123  A    between atoms: _296  and  _297
REMARK  124  A    between atoms: _296  and  _299
REMARK  125  A    between atoms: _299  and  _300
REMARK  126  A    between atoms: _303  and  _305
REMARK  127  A    between atoms: _305  and  _306
REMARK  128  A    between atoms: _310  and  _311
REMARK  129  A    between atoms: _316  and  _318
REMARK  130  A    between atoms: _318  and  _319
REMARK  131  A    between atoms: _322  and  _324
REMARK  132  A    between atoms: _324  and  _325
REMARK  133  A    between atoms: _324  and  _327
REMARK  134  A    between atoms: _327  and  _328
REMARK  135  A    between atoms: _338  and  _340
REMARK  136  A    between atoms: _340  and  _341
REMARK  137  A    between atoms: _340  and  _343
REMARK  138  A    between atoms: _343  and  _344
REMARK  139  A    between atoms: _347  and  _348
REMARK  140  A    between atoms: _353  and  _355
REMARK  141  A    between atoms: _355  and  _356
REMARK  142  A    between atoms: _355  and  _358
REMARK  143  A    between atoms: _358  and  _359
REMARK  144  A    between atoms: _359  and  _360
REMARK  145  A    between atoms: _360  and  _361
REMARK  146  A    between atoms: _370  and  _372
REMARK  147  A    between atoms: _372  and  _373
REMARK  148  A    between atoms: _372  and  _375
REMARK  149  A    between atoms: _375  and  _376
REMARK  150  A    between atoms: _379  and  _381
REMARK  151  A    between atoms: _381  and  _382
REMARK  152  A    between atoms: _381  and  _384
REMARK  153  A    between atoms: _384  and  _385
REMARK  154  A    between atoms: _388  and  _390
REMARK  155  A    between atoms: _390  and  _391
REMARK  156  A    between atoms: _390  and  _393
REMARK  157  A    between atoms: _393  and  _394
REMARK  158  A    between atoms: _397  and  _399
REMARK  159  A    between atoms: _399  and  _400
REMARK  160  A    between atoms: _399  and  _402
REMARK  161  A    between atoms: _402  and  _403
REMARK  162  A    between atoms: _406  and  _408
REMARK  163  A    between atoms: _408  and  _409
REMARK  164  A    between atoms: _408  and  _411
REMARK  165  A    between atoms: _411  and  _412
REMARK  166  A    between atoms: _415  and  _417
REMARK  167  A    between atoms: _417  and  _418
REMARK  168  A    between atoms: _417  and  _420
REMARK  169  A    between atoms: _420  and  _421
REMARK  170  A    between atoms: _424  and  _426
REMARK  171  A    between atoms: _426  and  _427
REMARK  172  A    between atoms: _430  and  _432
REMARK  173  A    between atoms: _432  and  _433
REMARK  174  A    between atoms: _432  and  _435
REMARK  175  A    between atoms: _435  and  _436
REMARK  176  A    between atoms: _439  and  _441
REMARK  177  A    between atoms: _441  and  _442
REMARK  178  A    between atoms: _441  and  _444
REMARK  179  A    between atoms: _444  and  _445
REMARK  180  A    between atoms: _448  and  _450
REMARK  181  A    between atoms: _450  and  _451
REMARK  182  A    between atoms: _450  and  _453
REMARK  183  A    between atoms: _453  and  _454
REMARK  184  A    between atoms: _457  and  _459
REMARK  185  A    between atoms: _459  and  _460
REMARK  186  A    between atoms: _459  and  _462
REMARK  187  A    between atoms: _462  and  _463
REMARK  188  A    between atoms: _463  and  _464
REMARK  189  A    between atoms: _464  and  _465
REMARK  190  A    between atoms: _465  and  _466
REMARK  191  A    between atoms: _470  and  _472
REMARK  192  A    between atoms: _472  and  _473
REMARK  193  A    between atoms: _472  and  _475
REMARK  194  A    between atoms: _475  and  _476
REMARK  195  A    between atoms: _479  and  _481
REMARK  196  A    between atoms: _481  and  _482
REMARK  197  A    between atoms: _481  and  _484
REMARK  198  A    between atoms: _484  and  _485
REMARK  199  A    between atoms: _488  and  _490
REMARK  200  A    between atoms: _490  and  _491
REMARK  201  A    between atoms: _490  and  _493
REMARK  202  A    between atoms: _493  and  _494
REMARK  203  A    between atoms: _498  and  _499
REMARK  204  A    between atoms: _504  and  _506
REMARK  205  A    between atoms: _506  and  _507
REMARK  206  A    between atoms: _506  and  _509
REMARK  207  A    between atoms: _509  and  _510
REMARK  208  A    between atoms: _515  and  _517
REMARK  209  A    between atoms: _517  and  _518
REMARK  210  A    between atoms: _517  and  _520
REMARK  211  A    between atoms: _520  and  _521
REMARK  212  A    between atoms: _521  and  _522
REMARK  213  A    between atoms: _522  and  _523
REMARK  214  A    between atoms: _523  and  _524
REMARK  215  A    between atoms: _528  and  _530
REMARK  216  A    between atoms: _530  and  _531
REMARK  217  A    between atoms: _530  and  _533
REMARK  218  A    between atoms: _533  and  _534
REMARK  219  A    between atoms: _534  and  _535
REMARK  220  A    between atoms: _538  and  _540
REMARK  221  A    between atoms: _540  and  _541
REMARK  222  A    between atoms: _540  and  _543
REMARK  223  A    between atoms: _543  and  _544
REMARK  224  A    between atoms: _547  and  _549
REMARK  225  A    between atoms: _549  and  _550
REMARK  226  A    between atoms: _549  and  _552
REMARK  227  A    between atoms: _552  and  _553
REMARK  228  A    between atoms: _553  and  _554
REMARK  229  A    between atoms: _554  and  _555
REMARK  230  A    between atoms: _564  and  _566
REMARK  231  A    between atoms: _566  and  _567
REMARK  232  A    between atoms: _566  and  _569
REMARK  233  A    between atoms: _569  and  _570
REMARK  234  A    between atoms: _572  and  _574
REMARK  235  A    between atoms: _574  and  _575
REMARK  236  A    between atoms: _574  and  _577
REMARK  237  A    between atoms: _577  and  _578
REMARK  238  A    between atoms: _584  and  _586
REMARK  239  A    between atoms: _586  and  _587
REMARK  240  A    between atoms: _590  and  _592
REMARK  241  A    between atoms: _592  and  _593
REMARK  242  A    between atoms: _592  and  _595
REMARK  243  A    between atoms: _595  and  _596
REMARK  244  A    between atoms: _596  and  _597
REMARK  245  A    between atoms: _600  and  _602
REMARK  246  A    between atoms: _602  and  _603
REMARK  247  A    between atoms: _602  and  _605
REMARK  248  A    between atoms: _605  and  _606
REMARK                            x       y       z     vdW  Elec       q    Type
REMARK                         _______ _______ _______ _____ _____    ______ ____
ROOT
ATOM      1  O   HOH     1       4.379  25.046  -8.130  0.00  0.00    +0.000 OA
ENDROOT
TORSDOF 0
REMARK  Name = ../refined-set-2016/4pzv/4pzv_pocket.pdb
REMARK  248 active torsions:
REMARK  status: ('A' for Active; 'I' for Inactive)
REMARK    1  A    between atoms: _1  and  _3
REMARK    2  A    between atoms: _3  and  _4
REMARK    3  A    between atoms: _3  and  _6
REMARK    4  A    between atoms: _6  and  _7
REMARK    5  A    between atoms: _10  and  _12
REMARK    6  A    between atoms: _12  and  _13
REMARK    7  A    between atoms: _12  and  _15
REMARK    8  A    between atoms: _15  and  _16
REMARK    9  A    between atoms: _19  and  _21
REMARK   10  A    between atoms: _21  and  _22
REMARK   11  A    between atoms: _24  and  _26
REMARK   12  A    between atoms: _26  and  _27
REMARK   13  A    between atoms: _26  and  _29
REMARK   14  A    between atoms: _29  and  _30
REMARK   15  A    between atoms: _33  and  _35
REMARK   16  A    between atoms: _35  and  _36
REMARK   17  A    between atoms: _38  and  _40
REMARK   18  A    between atoms: _40  and  _41
REMARK   19  A    between atoms: _40  and  _43
REMARK   20  A    between atoms: _43  and  _44
REMARK   21  A    between atoms: _47  and  _49
REMARK   22  A    between atoms: _49  and  _50
REMARK   23  A    between atoms: _49  and  _52
REMARK   24  A    between atoms: _52  and  _53
REMARK   25  A    between atoms: _58  and  _60
REMARK   26  A    between atoms: _60  and  _61
REMARK   27  A    between atoms: _60  and  _63
REMARK   28  A    between atoms: _63  and  _64
REMARK   29  A    between atoms: _69  and  _70
REMARK   30  A    between atoms: _72  and  _74
REMARK   31  A    between atoms: _74  and  _75
REMARK   32  A    between atoms: _74  and  _77
REMARK   33  A    between atoms: _77  and  _78
REMARK   34  A    between atoms: _80  and  _82
REMARK   35  A    between atoms: _82  and  _83
REMARK   36  A    between atoms: _82  and  _85
REMARK   37  A    between atoms: _85  and  _86
REMARK   38  A    between atoms: _88  and  _90
REMARK   39  A    between atoms: _90  and  _91
REMARK   40  A    between atoms: _90  and  _93
REMARK   41  A    between atoms: _93  and  _94
REMARK   42  A    between atoms: _94  and  _95
REMARK   43  A    between atoms: _95  and  _96
REMARK   44  A    between atoms: _96  and  _97
REMARK   45  A    between atoms: _101  and  _103
REMARK   46  A    between atoms: _103  and  _104
REMARK   47  A    between atoms: _107  and  _109
REMARK   48  A    between atoms: _109  and  _110
REMARK   49  A    between atoms: _109  and  _112
REMARK   50  A    between atoms: _115  and  _117
REMARK   51  A    between atoms: _117  and  _118
REMARK   52  A    between atoms: _117  and  _120
REMARK   53  A    between atoms: _120  and  _121
REMARK   54  A    between atoms: _124  and  _126
REMARK   55  A    between atoms: _126  and  _127
REMARK   56  A    between atoms: _126  and  _129
REMARK   57  A    between atoms: _129  and  _130
REMARK   58  A    between atoms: _130  and  _131
REMARK   59  A    between atoms: _131  and  _132
REMARK   60  A    between atoms: _132  and  _133
REMARK   61  A    between atoms: _137  and  _139
REMARK   62  A    between atoms: _139  and  _140
REMARK   63  A    between atoms: _139  and  _142
REMARK   64  A    between atoms: _142  and  _143
REMARK   65  A    between atoms: _153  and  _155
REMARK   66  A    between atoms: _155  and  _156
REMARK   67  A    between atoms: _155  and  _158
REMARK   68  A    between atoms: _158  and  _159
REMARK   69  A    between atoms: _162  and  _164
REMARK   70  A    between atoms: _164  and  _165
REMARK   71  A    between atoms: _164  and  _167
REMARK   72  A    between atoms: _167  and  _168
REMARK   73  A    between atoms: _168  and  _169
REMARK   74  A    between atoms: _169  and  _170
REMARK   75  A    between atoms: _179  and  _181
REMARK   76  A    between atoms: _181  and  _182
REMARK   77  A    between atoms: _181  and  _184
REMARK   78  A    between atoms: _184  and  _185
REMARK   79  A    between atoms: _191  and  _193
REMARK   80  A    between atoms: _193  and  _194
REMARK   81  A    between atoms: _193  and  _196
REMARK   82  A    between atoms: _196  and  _197
REMARK   83  A    between atoms: _200  and  _202
REMARK   84  A    between atoms: _202  and  _203
REMARK   85  A    between atoms: _202  and  _205
REMARK   86  A    between atoms: _205  and  _206
REMARK   87  A    between atoms: _211  and  _213
REMARK   88  A    between atoms: _213  and  _214
REMARK   89  A    between atoms: _213  and  _216
REMARK   90  A    between atoms: _216  and  _217
REMARK   91  A    between atoms: _221  and  _222
REMARK   92  A    between atoms: _227  and  _229
REMARK   93  A    between atoms: _229  and  _230
REMARK   94  A    between atoms: _229  and  _232
REMARK   95  A    between atoms: _232  and  _233
REMARK   96  A    between atoms: _236  and  _238
REMARK   97  A    between atoms: _238  and  _239
REMARK   98  A    between atoms: _238  and  _241
REMARK   99  A    between atoms: _241  and  _242
REMARK  100  A    between atoms: _245  and  _247
REMARK  101  A    between atoms: _247  and  _248
REMARK  102  A    between atoms: _247  and  _250
REMARK  103  A    between atoms: _250  and  _251
REMARK  104  A    between atoms: _254  and  _256
REMARK  105  A    between atoms: _256  and  _257
REMARK  106  A    between atoms: _256  and  _259
REMARK  107  A    between atoms: _259  and  _260
REMARK  108  A    between atoms: _260  and  _261
REMARK  109  A    between atoms: _261  and  _262
REMARK  110  A    between atoms: _262  and  _263
REMARK  111  A    between atoms: _267  and  _269
REMARK  112  A    between atoms: _269  and  _270
REMARK  113  A    between atoms: _269  and  _272
REMARK  114  A    between atoms: _272  and  _273
REMARK  115  A    between atoms: _273  and  _274
REMARK  116  A    between atoms: _277  and  _279
REMARK  117  A    between atoms: _279  and  _280
REMARK  118  A    between atoms: _279  and  _282
REMARK  119  A    between atoms: _282  and  _283
REMARK  120  A    between atoms: _283  and  _284
REMARK  121  A    between atoms: _284  and  _285
REMARK  122  A    between atoms: _294  and  _296
REMARK  123  A    between atoms: _296  and  _297
REMARK  124  A    between atoms: _296  and  _299
REMARK  125  A    between atoms: _299  and  _300
REMARK  126  A    between atoms: _303  and  _305
REMARK  127  A    between atoms: _305  and  _306
REMARK  128  A    between atoms: _310  and  _311
REMARK  129  A    between atoms: _316  and  _318
REMARK  130  A    between atoms: _318  and  _319
REMARK  131  A    between atoms: _322  and  _324
REMARK  132  A    between atoms: _324  and  _325
REMARK  133  A    between atoms: _324  and  _327
REMARK  134  A    between atoms: _327  and  _328
REMARK  135  A    between atoms: _338  and  _340
REMARK  136  A    between atoms: _340  and  _341
REMARK  137  A    between atoms: _340  and  _343
REMARK  138  A    between atoms: _343  and  _344
REMARK  139  A    between atoms: _347  and  _348
REMARK  140  A    between atoms: _353  and  _355
REMARK  141  A    between atoms: _355  and  _356
REMARK  142  A    between atoms: _355  and  _358
REMARK  143  A    between atoms: _358  and  _359
REMARK  144  A    between atoms: _359  and  _360
REMARK  145  A    between atoms: _360  and  _361
REMARK  146  A    between atoms: _370  and  _372
REMARK  147  A    between atoms: _372  and  _373
REMARK  148  A    between atoms: _372  and  _375
REMARK  149  A    between atoms: _375  and  _376
REMARK  150  A    between atoms: _379  and  _381
REMARK  151  A    between atoms: _381  and  _382
REMARK  152  A    between atoms: _381  and  _384
REMARK  153  A    between atoms: _384  and  _385
REMARK  154  A    between atoms: _388  and  _390
REMARK  155  A    between atoms: _390  and  _391
REMARK  156  A    between atoms: _390  and  _393
REMARK  157  A    between atoms: _393  and  _394
REMARK  158  A    between atoms: _397  and  _399
REMARK  159  A    between atoms: _399  and  _400
REMARK  160  A    between atoms: _399  and  _402
REMARK  161  A    between atoms: _402  and  _403
REMARK  162  A    between atoms: _406  and  _408
REMARK  163  A    between atoms: _408  and  _409
REMARK  164  A    between atoms: _408  and  _411
REMARK  165  A    between atoms: _411  and  _412
REMARK  166  A    between atoms: _415  and  _417
REMARK  167  A    between atoms: _417  and  _418
REMARK  168  A    between atoms: _417  and  _420
REMARK  169  A    between atoms: _420  and  _421
REMARK  170  A    between atoms: _424  and  _426
REMARK  171  A    between atoms: _426  and  _427
REMARK  172  A    between atoms: _430  and  _432
REMARK  173  A    between atoms: _432  and  _433
REMARK  174  A    between atoms: _432  and  _435
REMARK  175  A    between atoms: _435  and  _436
REMARK  176  A    between atoms: _439  and  _441
REMARK  177  A    between atoms: _441  and  _442
REMARK  178  A    between atoms: _441  and  _444
REMARK  179  A    between atoms: _444  and  _445
REMARK  180  A    between atoms: _448  and  _450
REMARK  181  A    between atoms: _450  and  _451
REMARK  182  A    between atoms: _450  and  _453
REMARK  183  A    between atoms: _453  and  _454
REMARK  184  A    between atoms: _457  and  _459
REMARK  185  A    between atoms: _459  and  _460
REMARK  186  A    between atoms: _459  and  _462
REMARK  187  A    between atoms: _462  and  _463
REMARK  188  A    between atoms: _463  and  _464
REMARK  189  A    between atoms: _464  and  _465
REMARK  190  A    between atoms: _465  and  _466
REMARK  191  A    between atoms: _470  and  _472
REMARK  192  A    between atoms: _472  and  _473
REMARK  193  A    between atoms: _472  and  _475
REMARK  194  A    between atoms: _475  and  _476
REMARK  195  A    between atoms: _479  and  _481
REMARK  196  A    between atoms: _481  and  _482
REMARK  197  A    between atoms: _481  and  _484
REMARK  198  A    between atoms: _484  and  _485
REMARK  199  A    between atoms: _488  and  _490
REMARK  200  A    between atoms: _490  and  _491
REMARK  201  A    between atoms: _490  and  _493
REMARK  202  A    between atoms: _493  and  _494
REMARK  203  A    between atoms: _498  and  _499
REMARK  204  A    between atoms: _504  and  _506
REMARK  205  A    between atoms: _506  and  _507
REMARK  206  A    between atoms: _506  and  _509
REMARK  207  A    between atoms: _509  and  _510
REMARK  208  A    between atoms: _515  and  _517
REMARK  209  A    between atoms: _517  and  _518
REMARK  210  A    between atoms: _517  and  _520
REMARK  211  A    between atoms: _520  and  _521
REMARK  212  A    between atoms: _521  and  _522
REMARK  213  A    between atoms: _522  and  _523
REMARK  214  A    between atoms: _523  and  _524
REMARK  215  A    between atoms: _528  and  _530
REMARK  216  A    between atoms: _530  and  _531
REMARK  217  A    between atoms: _530  and  _533
REMARK  218  A    between atoms: _533  and  _534
REMARK  219  A    between atoms: _534  and  _535
REMARK  220  A    between atoms: _538  and  _540
REMARK  221  A    between atoms: _540  and  _541
REMARK  222  A    between atoms: _540  and  _543
REMARK  223  A    between atoms: _543  and  _544
REMARK  224  A    between atoms: _547  and  _549
REMARK  225  A    between atoms: _549  and  _550
REMARK  226  A    between atoms: _549  and  _552
REMARK  227  A    between atoms: _552  and  _553
REMARK  228  A    between atoms: _553  and  _554
REMARK  229  A    between atoms: _554  and  _555
REMARK  230  A    between atoms: _564  and  _566
REMARK  231  A    between atoms: _566  and  _567
REMARK  232  A    between atoms: _566  and  _569
REMARK  233  A    between atoms: _569  and  _570
REMARK  234  A    between atoms: _572  and  _574
REMARK  235  A    between atoms: _574  and  _575
REMARK  236  A    between atoms: _574  and  _577
REMARK  237  A    between atoms: _577  and  _578
REMARK  238  A    between atoms: _584  and  _586
REMARK  239  A    between atoms: _586  and  _587
REMARK  240  A    between atoms: _590  and  _592
REMARK  241  A    between atoms: _592  and  _593
REMARK  242  A    between atoms: _592  and  _595
REMARK  243  A    between atoms: _595  and  _596
REMARK  244  A    between atoms: _596  and  _597
REMARK  245  A    between atoms: _600  and  _602
REMARK  246  A    between atoms: _602  and  _603
REMARK  247  A    between atoms: _602  and  _605
REMARK  248  A    between atoms: _605  and  _606
REMARK                            x       y       z     vdW  Elec       q    Type
REMARK                         _______ _______ _______ _____ _____    ______ ____
ROOT
ATOM      1  O   HOH     1       2.956  21.923  -7.776  0.00  0.00    +0.000 OA
ENDROOT
TORSDOF 0
REMARK  Name = ../refined-set-2016/4pzv/4pzv_pocket.pdb
REMARK  248 active torsions:
REMARK  status: ('A' for Active; 'I' for Inactive)
REMARK    1  A    between atoms: _1  and  _3
REMARK    2  A    between atoms: _3  and  _4
REMARK    3  A    between atoms: _3  and  _6
REMARK    4  A    between atoms: _6  and  _7
REMARK    5  A    between atoms: _10  and  _12
REMARK    6  A    between atoms: _12  and  _13
REMARK    7  A    between atoms: _12  and  _15
REMARK    8  A    between atoms: _15  and  _16
REMARK    9  A    between atoms: _19  and  _21
REMARK   10  A    between atoms: _21  and  _22
REMARK   11  A    between atoms: _24  and  _26
REMARK   12  A    between atoms: _26  and  _27
REMARK   13  A    between atoms: _26  and  _29
REMARK   14  A    between atoms: _29  and  _30
REMARK   15  A    between atoms: _33  and  _35
REMARK   16  A    between atoms: _35  and  _36
REMARK   17  A    between atoms: _38  and  _40
REMARK   18  A    between atoms: _40  and  _41
REMARK   19  A    between atoms: _40  and  _43
REMARK   20  A    between atoms: _43  and  _44
REMARK   21  A    between atoms: _47  and  _49
REMARK   22  A    between atoms: _49  and  _50
REMARK   23  A    between atoms: _49  and  _52
REMARK   24  A    between atoms: _52  and  _53
REMARK   25  A    between atoms: _58  and  _60
REMARK   26  A    between atoms: _60  and  _61
REMARK   27  A    between atoms: _60  and  _63
REMARK   28  A    between atoms: _63  and  _64
REMARK   29  A    between atoms: _69  and  _70
REMARK   30  A    between atoms: _72  and  _74
REMARK   31  A    between atoms: _74  and  _75
REMARK   32  A    between atoms: _74  and  _77
REMARK   33  A    between atoms: _77  and  _78
REMARK   34  A    between atoms: _80  and  _82
REMARK   35  A    between atoms: _82  and  _83
REMARK   36  A    between atoms: _82  and  _85
REMARK   37  A    between atoms: _85  and  _86
REMARK   38  A    between atoms: _88  and  _90
REMARK   39  A    between atoms: _90  and  _91
REMARK   40  A    between atoms: _90  and  _93
REMARK   41  A    between atoms: _93  and  _94
REMARK   42  A    between atoms: _94  and  _95
REMARK   43  A    between atoms: _95  and  _96
REMARK   44  A    between atoms: _96  and  _97
REMARK   45  A    between atoms: _101  and  _103
REMARK   46  A    between atoms: _103  and  _104
REMARK   47  A    between atoms: _107  and  _109
REMARK   48  A    between atoms: _109  and  _110
REMARK   49  A    between atoms: _109  and  _112
REMARK   50  A    between atoms: _115  and  _117
REMARK   51  A    between atoms: _117  and  _118
REMARK   52  A    between atoms: _117  and  _120
REMARK   53  A    between atoms: _120  and  _121
REMARK   54  A    between atoms: _124  and  _126
REMARK   55  A    between atoms: _126  and  _127
REMARK   56  A    between atoms: _126  and  _129
REMARK   57  A    between atoms: _129  and  _130
REMARK   58  A    between atoms: _130  and  _131
REMARK   59  A    between atoms: _131  and  _132
REMARK   60  A    between atoms: _132  and  _133
REMARK   61  A    between atoms: _137  and  _139
REMARK   62  A    between atoms: _139  and  _140
REMARK   63  A    between atoms: _139  and  _142
REMARK   64  A    between atoms: _142  and  _143
REMARK   65  A    between atoms: _153  and  _155
REMARK   66  A    between atoms: _155  and  _156
REMARK   67  A    between atoms: _155  and  _158
REMARK   68  A    between atoms: _158  and  _159
REMARK   69  A    between atoms: _162  and  _164
REMARK   70  A    between atoms: _164  and  _165
REMARK   71  A    between atoms: _164  and  _167
REMARK   72  A    between atoms: _167  and  _168
REMARK   73  A    between atoms: _168  and  _169
REMARK   74  A    between atoms: _169  and  _170
REMARK   75  A    between atoms: _179  and  _181
REMARK   76  A    between atoms: _181  and  _182
REMARK   77  A    between atoms: _181  and  _184
REMARK   78  A    between atoms: _184  and  _185
REMARK   79  A    between atoms: _191  and  _193
REMARK   80  A    between atoms: _193  and  _194
REMARK   81  A    between atoms: _193  and  _196
REMARK   82  A    between atoms: _196  and  _197
REMARK   83  A    between atoms: _200  and  _202
REMARK   84  A    between atoms: _202  and  _203
REMARK   85  A    between atoms: _202  and  _205
REMARK   86  A    between atoms: _205  and  _206
REMARK   87  A    between atoms: _211  and  _213
REMARK   88  A    between atoms: _213  and  _214
REMARK   89  A    between atoms: _213  and  _216
REMARK   90  A    between atoms: _216  and  _217
REMARK   91  A    between atoms: _221  and  _222
REMARK   92  A    between atoms: _227  and  _229
REMARK   93  A    between atoms: _229  and  _230
REMARK   94  A    between atoms: _229  and  _232
REMARK   95  A    between atoms: _232  and  _233
REMARK   96  A    between atoms: _236  and  _238
REMARK   97  A    between atoms: _238  and  _239
REMARK   98  A    between atoms: _238  and  _241
REMARK   99  A    between atoms: _241  and  _242
REMARK  100  A    between atoms: _245  and  _247
REMARK  101  A    between atoms: _247  and  _248
REMARK  102  A    between atoms: _247  and  _250
REMARK  103  A    between atoms: _250  and  _251
REMARK  104  A    between atoms: _254  and  _256
REMARK  105  A    between atoms: _256  and  _257
REMARK  106  A    between atoms: _256  and  _259
REMARK  107  A    between atoms: _259  and  _260
REMARK  108  A    between atoms: _260  and  _261
REMARK  109  A    between atoms: _261  and  _262
REMARK  110  A    between atoms: _262  and  _263
REMARK  111  A    between atoms: _267  and  _269
REMARK  112  A    between atoms: _269  and  _270
REMARK  113  A    between atoms: _269  and  _272
REMARK  114  A    between atoms: _272  and  _273
REMARK  115  A    between atoms: _273  and  _274
REMARK  116  A    between atoms: _277  and  _279
REMARK  117  A    between atoms: _279  and  _280
REMARK  118  A    between atoms: _279  and  _282
REMARK  119  A    between atoms: _282  and  _283
REMARK  120  A    between atoms: _283  and  _284
REMARK  121  A    between atoms: _284  and  _285
REMARK  122  A    between atoms: _294  and  _296
REMARK  123  A    between atoms: _296  and  _297
REMARK  124  A    between atoms: _296  and  _299
REMARK  125  A    between atoms: _299  and  _300
REMARK  126  A    between atoms: _303  and  _305
REMARK  127  A    between atoms: _305  and  _306
REMARK  128  A    between atoms: _310  and  _311
REMARK  129  A    between atoms: _316  and  _318
REMARK  130  A    between atoms: _318  and  _319
REMARK  131  A    between atoms: _322  and  _324
REMARK  132  A    between atoms: _324  and  _325
REMARK  133  A    between atoms: _324  and  _327
REMARK  134  A    between atoms: _327  and  _328
REMARK  135  A    between atoms: _338  and  _340
REMARK  136  A    between atoms: _340  and  _341
REMARK  137  A    between atoms: _340  and  _343
REMARK  138  A    between atoms: _343  and  _344
REMARK  139  A    between atoms: _347  and  _348
REMARK  140  A    between atoms: _353  and  _355
REMARK  141  A    between atoms: _355  and  _356
REMARK  142  A    between atoms: _355  and  _358
REMARK  143  A    between atoms: _358  and  _359
REMARK  144  A    between atoms: _359  and  _360
REMARK  145  A    between atoms: _360  and  _361
REMARK  146  A    between atoms: _370  and  _372
REMARK  147  A    between atoms: _372  and  _373
REMARK  148  A    between atoms: _372  and  _375
REMARK  149  A    between atoms: _375  and  _376
REMARK  150  A    between atoms: _379  and  _381
REMARK  151  A    between atoms: _381  and  _382
REMARK  152  A    between atoms: _381  and  _384
REMARK  153  A    between atoms: _384  and  _385
REMARK  154  A    between atoms: _388  and  _390
REMARK  155  A    between atoms: _390  and  _391
REMARK  156  A    between atoms: _390  and  _393
REMARK  157  A    between atoms: _393  and  _394
REMARK  158  A    between atoms: _397  and  _399
REMARK  159  A    between atoms: _399  and  _400
REMARK  160  A    between atoms: _399  and  _402
REMARK  161  A    between atoms: _402  and  _403
REMARK  162  A    between atoms: _406  and  _408
REMARK  163  A    between atoms: _408  and  _409
REMARK  164  A    between atoms: _408  and  _411
REMARK  165  A    between atoms: _411  and  _412
REMARK  166  A    between atoms: _415  and  _417
REMARK  167  A    between atoms: _417  and  _418
REMARK  168  A    between atoms: _417  and  _420
REMARK  169  A    between atoms: _420  and  _421
REMARK  170  A    between atoms: _424  and  _426
REMARK  171  A    between atoms: _426  and  _427
REMARK  172  A    between atoms: _430  and  _432
REMARK  173  A    between atoms: _432  and  _433
REMARK  174  A    between atoms: _432  and  _435
REMARK  175  A    between atoms: _435  and  _436
REMARK  176  A    between atoms: _439  and  _441
REMARK  177  A    between atoms: _441  and  _442
REMARK  178  A    between atoms: _441  and  _444
REMARK  179  A    between atoms: _444  and  _445
REMARK  180  A    between atoms: _448  and  _450
REMARK  181  A    between atoms: _450  and  _451
REMARK  182  A    between atoms: _450  and  _453
REMARK  183  A    between atoms: _453  and  _454
REMARK  184  A    between atoms: _457  and  _459
REMARK  185  A    between atoms: _459  and  _460
REMARK  186  A    between atoms: _459  and  _462
REMARK  187  A    between atoms: _462  and  _463
REMARK  188  A    between atoms: _463  and  _464
REMARK  189  A    between atoms: _464  and  _465
REMARK  190  A    between atoms: _465  and  _466
REMARK  191  A    between atoms: _470  and  _472
REMARK  192  A    between atoms: _472  and  _473
REMARK  193  A    between atoms: _472  and  _475
REMARK  194  A    between atoms: _475  and  _476
REMARK  195  A    between atoms: _479  and  _481
REMARK  196  A    between atoms: _481  and  _482
REMARK  197  A    between atoms: _481  and  _484
REMARK  198  A    between atoms: _484  and  _485
REMARK  199  A    between atoms: _488  and  _490
REMARK  200  A    between atoms: _490  and  _491
REMARK  201  A    between atoms: _490  and  _493
REMARK  202  A    between atoms: _493  and  _494
REMARK  203  A    between atoms: _498  and  _499
REMARK  204  A    between atoms: _504  and  _506
REMARK  205  A    between atoms: _506  and  _507
REMARK  206  A    between atoms: _506  and  _509
REMARK  207  A    between atoms: _509  and  _510
REMARK  208  A    between atoms: _515  and  _517
REMARK  209  A    between atoms: _517  and  _518
REMARK  210  A    between atoms: _517  and  _520
REMARK  211  A    between atoms: _520  and  _521
REMARK  212  A    between atoms: _521  and  _522
REMARK  213  A    between atoms: _522  and  _523
REMARK  214  A    between atoms: _523  and  _524
REMARK  215  A    between atoms: _528  and  _530
REMARK  216  A    between atoms: _530  and  _531
REMARK  217  A    between atoms: _530  and  _533
REMARK  218  A    between atoms: _533  and  _534
REMARK  219  A    between atoms: _534  and  _535
REMARK  220  A    between atoms: _538  and  _540
REMARK  221  A    between atoms: _540  and  _541
REMARK  222  A    between atoms: _540  and  _543
REMARK  223  A    between atoms: _543  and  _544
REMARK  224  A    between atoms: _547  and  _549
REMARK  225  A    between atoms: _549  and  _550
REMARK  226  A    between atoms: _549  and  _552
REMARK  227  A    between atoms: _552  and  _553
REMARK  228  A    between atoms: _553  and  _554
REMARK  229  A    between atoms: _554  and  _555
REMARK  230  A    between atoms: _564  and  _566
REMARK  231  A    between atoms: _566  and  _567
REMARK  232  A    between atoms: _566  and  _569
REMARK  233  A    between atoms: _569  and  _570
REMARK  234  A    between atoms: _572  and  _574
REMARK  235  A    between atoms: _574  and  _575
REMARK  236  A    between atoms: _574  and  _577
REMARK  237  A    between atoms: _577  and  _578
REMARK  238  A    between atoms: _584  and  _586
REMARK  239  A    between atoms: _586  and  _587
REMARK  240  A    between atoms: _590  and  _592
REMARK  241  A    between atoms: _592  and  _593
REMARK  242  A    between atoms: _592  and  _595
REMARK  243  A    between atoms: _595  and  _596
REMARK  244  A    between atoms: _596  and  _597
REMARK  245  A    between atoms: _600  and  _602
REMARK  246  A    between atoms: _602  and  _603
REMARK  247  A    between atoms: _602  and  _605
REMARK  248  A    between atoms: _605  and  _606
REMARK                            x       y       z     vdW  Elec       q    Type
REMARK                         _______ _______ _______ _____ _____    ______ ____
ROOT
ATOM      1  O   HOH     1       3.117  22.829 -10.436  0.00  0.00    +0.000 OA
ENDROOT
TORSDOF 0
REMARK  Name = ../refined-set-2016/4pzv/4pzv_pocket.pdb
REMARK  248 active torsions:
REMARK  status: ('A' for Active; 'I' for Inactive)
REMARK    1  A    between atoms: _1  and  _3
REMARK    2  A    between atoms: _3  and  _4
REMARK    3  A    between atoms: _3  and  _6
REMARK    4  A    between atoms: _6  and  _7
REMARK    5  A    between atoms: _10  and  _12
REMARK    6  A    between atoms: _12  and  _13
REMARK    7  A    between atoms: _12  and  _15
REMARK    8  A    between atoms: _15  and  _16
REMARK    9  A    between atoms: _19  and  _21
REMARK   10  A    between atoms: _21  and  _22
REMARK   11  A    between atoms: _24  and  _26
REMARK   12  A    between atoms: _26  and  _27
REMARK   13  A    between atoms: _26  and  _29
REMARK   14  A    between atoms: _29  and  _30
REMARK   15  A    between atoms: _33  and  _35
REMARK   16  A    between atoms: _35  and  _36
REMARK   17  A    between atoms: _38  and  _40
REMARK   18  A    between atoms: _40  and  _41
REMARK   19  A    between atoms: _40  and  _43
REMARK   20  A    between atoms: _43  and  _44
REMARK   21  A    between atoms: _47  and  _49
REMARK   22  A    between atoms: _49  and  _50
REMARK   23  A    between atoms: _49  and  _52
REMARK   24  A    between atoms: _52  and  _53
REMARK   25  A    between atoms: _58  and  _60
REMARK   26  A    between atoms: _60  and  _61
REMARK   27  A    between atoms: _60  and  _63
REMARK   28  A    between atoms: _63  and  _64
REMARK   29  A    between atoms: _69  and  _70
REMARK   30  A    between atoms: _72  and  _74
REMARK   31  A    between atoms: _74  and  _75
REMARK   32  A    between atoms: _74  and  _77
REMARK   33  A    between atoms: _77  and  _78
REMARK   34  A    between atoms: _80  and  _82
REMARK   35  A    between atoms: _82  and  _83
REMARK   36  A    between atoms: _82  and  _85
REMARK   37  A    between atoms: _85  and  _86
REMARK   38  A    between atoms: _88  and  _90
REMARK   39  A    between atoms: _90  and  _91
REMARK   40  A    between atoms: _90  and  _93
REMARK   41  A    between atoms: _93  and  _94
REMARK   42  A    between atoms: _94  and  _95
REMARK   43  A    between atoms: _95  and  _96
REMARK   44  A    between atoms: _96  and  _97
REMARK   45  A    between atoms: _101  and  _103
REMARK   46  A    between atoms: _103  and  _104
REMARK   47  A    between atoms: _107  and  _109
REMARK   48  A    between atoms: _109  and  _110
REMARK   49  A    between atoms: _109  and  _112
REMARK   50  A    between atoms: _115  and  _117
REMARK   51  A    between atoms: _117  and  _118
REMARK   52  A    between atoms: _117  and  _120
REMARK   53  A    between atoms: _120  and  _121
REMARK   54  A    between atoms: _124  and  _126
REMARK   55  A    between atoms: _126  and  _127
REMARK   56  A    between atoms: _126  and  _129
REMARK   57  A    between atoms: _129  and  _130
REMARK   58  A    between atoms: _130  and  _131
REMARK   59  A    between atoms: _131  and  _132
REMARK   60  A    between atoms: _132  and  _133
REMARK   61  A    between atoms: _137  and  _139
REMARK   62  A    between atoms: _139  and  _140
REMARK   63  A    between atoms: _139  and  _142
REMARK   64  A    between atoms: _142  and  _143
REMARK   65  A    between atoms: _153  and  _155
REMARK   66  A    between atoms: _155  and  _156
REMARK   67  A    between atoms: _155  and  _158
REMARK   68  A    between atoms: _158  and  _159
REMARK   69  A    between atoms: _162  and  _164
REMARK   70  A    between atoms: _164  and  _165
REMARK   71  A    between atoms: _164  and  _167
REMARK   72  A    between atoms: _167  and  _168
REMARK   73  A    between atoms: _168  and  _169
REMARK   74  A    between atoms: _169  and  _170
REMARK   75  A    between atoms: _179  and  _181
REMARK   76  A    between atoms: _181  and  _182
REMARK   77  A    between atoms: _181  and  _184
REMARK   78  A    between atoms: _184  and  _185
REMARK   79  A    between atoms: _191  and  _193
REMARK   80  A    between atoms: _193  and  _194
REMARK   81  A    between atoms: _193  and  _196
REMARK   82  A    between atoms: _196  and  _197
REMARK   83  A    between atoms: _200  and  _202
REMARK   84  A    between atoms: _202  and  _203
REMARK   85  A    between atoms: _202  and  _205
REMARK   86  A    between atoms: _205  and  _206
REMARK   87  A    between atoms: _211  and  _213
REMARK   88  A    between atoms: _213  and  _214
REMARK   89  A    between atoms: _213  and  _216
REMARK   90  A    between atoms: _216  and  _217
REMARK   91  A    between atoms: _221  and  _222
REMARK   92  A    between atoms: _227  and  _229
REMARK   93  A    between atoms: _229  and  _230
REMARK   94  A    between atoms: _229  and  _232
REMARK   95  A    between atoms: _232  and  _233
REMARK   96  A    between atoms: _236  and  _238
REMARK   97  A    between atoms: _238  and  _239
REMARK   98  A    between atoms: _238  and  _241
REMARK   99  A    between atoms: _241  and  _242
REMARK  100  A    between atoms: _245  and  _247
REMARK  101  A    between atoms: _247  and  _248
REMARK  102  A    between atoms: _247  and  _250
REMARK  103  A    between atoms: _250  and  _251
REMARK  104  A    between atoms: _254  and  _256
REMARK  105  A    between atoms: _256  and  _257
REMARK  106  A    between atoms: _256  and  _259
REMARK  107  A    between atoms: _259  and  _260
REMARK  108  A    between atoms: _260  and  _261
REMARK  109  A    between atoms: _261  and  _262
REMARK  110  A    between atoms: _262  and  _263
REMARK  111  A    between atoms: _267  and  _269
REMARK  112  A    between atoms: _269  and  _270
REMARK  113  A    between atoms: _269  and  _272
REMARK  114  A    between atoms: _272  and  _273
REMARK  115  A    between atoms: _273  and  _274
REMARK  116  A    between atoms: _277  and  _279
REMARK  117  A    between atoms: _279  and  _280
REMARK  118  A    between atoms: _279  and  _282
REMARK  119  A    between atoms: _282  and  _283
REMARK  120  A    between atoms: _283  and  _284
REMARK  121  A    between atoms: _284  and  _285
REMARK  122  A    between atoms: _294  and  _296
REMARK  123  A    between atoms: _296  and  _297
REMARK  124  A    between atoms: _296  and  _299
REMARK  125  A    between atoms: _299  and  _300
REMARK  126  A    between atoms: _303  and  _305
REMARK  127  A    between atoms: _305  and  _306
REMARK  128  A    between atoms: _310  and  _311
REMARK  129  A    between atoms: _316  and  _318
REMARK  130  A    between atoms: _318  and  _319
REMARK  131  A    between atoms: _322  and  _324
REMARK  132  A    between atoms: _324  and  _325
REMARK  133  A    between atoms: _324  and  _327
REMARK  134  A    between atoms: _327  and  _328
REMARK  135  A    between atoms: _338  and  _340
REMARK  136  A    between atoms: _340  and  _341
REMARK  137  A    between atoms: _340  and  _343
REMARK  138  A    between atoms: _343  and  _344
REMARK  139  A    between atoms: _347  and  _348
REMARK  140  A    between atoms: _353  and  _355
REMARK  141  A    between atoms: _355  and  _356
REMARK  142  A    between atoms: _355  and  _358
REMARK  143  A    between atoms: _358  and  _359
REMARK  144  A    between atoms: _359  and  _360
REMARK  145  A    between atoms: _360  and  _361
REMARK  146  A    between atoms: _370  and  _372
REMARK  147  A    between atoms: _372  and  _373
REMARK  148  A    between atoms: _372  and  _375
REMARK  149  A    between atoms: _375  and  _376
REMARK  150  A    between atoms: _379  and  _381
REMARK  151  A    between atoms: _381  and  _382
REMARK  152  A    between atoms: _381  and  _384
REMARK  153  A    between atoms: _384  and  _385
REMARK  154  A    between atoms: _388  and  _390
REMARK  155  A    between atoms: _390  and  _391
REMARK  156  A    between atoms: _390  and  _393
REMARK  157  A    between atoms: _393  and  _394
REMARK  158  A    between atoms: _397  and  _399
REMARK  159  A    between atoms: _399  and  _400
REMARK  160  A    between atoms: _399  and  _402
REMARK  161  A    between atoms: _402  and  _403
REMARK  162  A    between atoms: _406  and  _408
REMARK  163  A    between atoms: _408  and  _409
REMARK  164  A    between atoms: _408  and  _411
REMARK  165  A    between atoms: _411  and  _412
REMARK  166  A    between atoms: _415  and  _417
REMARK  167  A    between atoms: _417  and  _418
REMARK  168  A    between atoms: _417  and  _420
REMARK  169  A    between atoms: _420  and  _421
REMARK  170  A    between atoms: _424  and  _426
REMARK  171  A    between atoms: _426  and  _427
REMARK  172  A    between atoms: _430  and  _432
REMARK  173  A    between atoms: _432  and  _433
REMARK  174  A    between atoms: _432  and  _435
REMARK  175  A    between atoms: _435  and  _436
REMARK  176  A    between atoms: _439  and  _441
REMARK  177  A    between atoms: _441  and  _442
REMARK  178  A    between atoms: _441  and  _444
REMARK  179  A    between atoms: _444  and  _445
REMARK  180  A    between atoms: _448  and  _450
REMARK  181  A    between atoms: _450  and  _451
REMARK  182  A    between atoms: _450  and  _453
REMARK  183  A    between atoms: _453  and  _454
REMARK  184  A    between atoms: _457  and  _459
REMARK  185  A    between atoms: _459  and  _460
REMARK  186  A    between atoms: _459  and  _462
REMARK  187  A    between atoms: _462  and  _463
REMARK  188  A    between atoms: _463  and  _464
REMARK  189  A    between atoms: _464  and  _465
REMARK  190  A    between atoms: _465  and  _466
REMARK  191  A    between atoms: _470  and  _472
REMARK  192  A    between atoms: _472  and  _473
REMARK  193  A    between atoms: _472  and  _475
REMARK  194  A    between atoms: _475  and  _476
REMARK  195  A    between atoms: _479  and  _481
REMARK  196  A    between atoms: _481  and  _482
REMARK  197  A    between atoms: _481  and  _484
REMARK  198  A    between atoms: _484  and  _485
REMARK  199  A    between atoms: _488  and  _490
REMARK  200  A    between atoms: _490  and  _491
REMARK  201  A    between atoms: _490  and  _493
REMARK  202  A    between atoms: _493  and  _494
REMARK  203  A    between atoms: _498  and  _499
REMARK  204  A    between atoms: _504  and  _506
REMARK  205  A    between atoms: _506  and  _507
REMARK  206  A    between atoms: _506  and  _509
REMARK  207  A    between atoms: _509  and  _510
REMARK  208  A    between atoms: _515  and  _517
REMARK  209  A    between atoms: _517  and  _518
REMARK  210  A    between atoms: _517  and  _520
REMARK  211  A    between atoms: _520  and  _521
REMARK  212  A    between atoms: _521  and  _522
REMARK  213  A    between atoms: _522  and  _523
REMARK  214  A    between atoms: _523  and  _524
REMARK  215  A    between atoms: _528  and  _530
REMARK  216  A    between atoms: _530  and  _531
REMARK  217  A    between atoms: _530  and  _533
REMARK  218  A    between atoms: _533  and  _534
REMARK  219  A    between atoms: _534  and  _535
REMARK  220  A    between atoms: _538  and  _540
REMARK  221  A    between atoms: _540  and  _541
REMARK  222  A    between atoms: _540  and  _543
REMARK  223  A    between atoms: _543  and  _544
REMARK  224  A    between atoms: _547  and  _549
REMARK  225  A    between atoms: _549  and  _550
REMARK  226  A    between atoms: _549  and  _552
REMARK  227  A    between atoms: _552  and  _553
REMARK  228  A    between atoms: _553  and  _554
REMARK  229  A    between atoms: _554  and  _555
REMARK  230  A    between atoms: _564  and  _566
REMARK  231  A    between atoms: _566  and  _567
REMARK  232  A    between atoms: _566  and  _569
REMARK  233  A    between atoms: _569  and  _570
REMARK  234  A    between atoms: _572  and  _574
REMARK  235  A    between atoms: _574  and  _575
REMARK  236  A    between atoms: _574  and  _577
REMARK  237  A    between atoms: _577  and  _578
REMARK  238  A    between atoms: _584  and  _586
REMARK  239  A    between atoms: _586  and  _587
REMARK  240  A    between atoms: _590  and  _592
REMARK  241  A    between atoms: _592  and  _593
REMARK  242  A    between atoms: _592  and  _595
REMARK  243  A    between atoms: _595  and  _596
REMARK  244  A    between atoms: _596  and  _597
REMARK  245  A    between atoms: _600  and  _602
REMARK  246  A    between atoms: _602  and  _603
REMARK  247  A    between atoms: _602  and  _605
REMARK  248  A    between atoms: _605  and  _606
REMARK                            x       y       z     vdW  Elec       q    Type
REMARK                         _______ _______ _______ _____ _____    ______ ____
ROOT
ATOM      1  O   HOH     1       3.299  21.701 -12.871  0.00  0.00    +0.000 OA
ENDROOT
TORSDOF 0
REMARK  Name = ../refined-set-2016/4pzv/4pzv_pocket.pdb
REMARK  248 active torsions:
REMARK  status: ('A' for Active; 'I' for Inactive)
REMARK    1  A    between atoms: _1  and  _3
REMARK    2  A    between atoms: _3  and  _4
REMARK    3  A    between atoms: _3  and  _6
REMARK    4  A    between atoms: _6  and  _7
REMARK    5  A    between atoms: _10  and  _12
REMARK    6  A    between atoms: _12  and  _13
REMARK    7  A    between atoms: _12  and  _15
REMARK    8  A    between atoms: _15  and  _16
REMARK    9  A    between atoms: _19  and  _21
REMARK   10  A    between atoms: _21  and  _22
REMARK   11  A    between atoms: _24  and  _26
REMARK   12  A    between atoms: _26  and  _27
REMARK   13  A    between atoms: _26  and  _29
REMARK   14  A    between atoms: _29  and  _30
REMARK   15  A    between atoms: _33  and  _35
REMARK   16  A    between atoms: _35  and  _36
REMARK   17  A    between atoms: _38  and  _40
REMARK   18  A    between atoms: _40  and  _41
REMARK   19  A    between atoms: _40  and  _43
REMARK   20  A    between atoms: _43  and  _44
REMARK   21  A    between atoms: _47  and  _49
REMARK   22  A    between atoms: _49  and  _50
REMARK   23  A    between atoms: _49  and  _52
REMARK   24  A    between atoms: _52  and  _53
REMARK   25  A    between atoms: _58  and  _60
REMARK   26  A    between atoms: _60  and  _61
REMARK   27  A    between atoms: _60  and  _63
REMARK   28  A    between atoms: _63  and  _64
REMARK   29  A    between atoms: _69  and  _70
REMARK   30  A    between atoms: _72  and  _74
REMARK   31  A    between atoms: _74  and  _75
REMARK   32  A    between atoms: _74  and  _77
REMARK   33  A    between atoms: _77  and  _78
REMARK   34  A    between atoms: _80  and  _82
REMARK   35  A    between atoms: _82  and  _83
REMARK   36  A    between atoms: _82  and  _85
REMARK   37  A    between atoms: _85  and  _86
REMARK   38  A    between atoms: _88  and  _90
REMARK   39  A    between atoms: _90  and  _91
REMARK   40  A    between atoms: _90  and  _93
REMARK   41  A    between atoms: _93  and  _94
REMARK   42  A    between atoms: _94  and  _95
REMARK   43  A    between atoms: _95  and  _96
REMARK   44  A    between atoms: _96  and  _97
REMARK   45  A    between atoms: _101  and  _103
REMARK   46  A    between atoms: _103  and  _104
REMARK   47  A    between atoms: _107  and  _109
REMARK   48  A    between atoms: _109  and  _110
REMARK   49  A    between atoms: _109  and  _112
REMARK   50  A    between atoms: _115  and  _117
REMARK   51  A    between atoms: _117  and  _118
REMARK   52  A    between atoms: _117  and  _120
REMARK   53  A    between atoms: _120  and  _121
REMARK   54  A    between atoms: _124  and  _126
REMARK   55  A    between atoms: _126  and  _127
REMARK   56  A    between atoms: _126  and  _129
REMARK   57  A    between atoms: _129  and  _130
REMARK   58  A    between atoms: _130  and  _131
REMARK   59  A    between atoms: _131  and  _132
REMARK   60  A    between atoms: _132  and  _133
REMARK   61  A    between atoms: _137  and  _139
REMARK   62  A    between atoms: _139  and  _140
REMARK   63  A    between atoms: _139  and  _142
REMARK   64  A    between atoms: _142  and  _143
REMARK   65  A    between atoms: _153  and  _155
REMARK   66  A    between atoms: _155  and  _156
REMARK   67  A    between atoms: _155  and  _158
REMARK   68  A    between atoms: _158  and  _159
REMARK   69  A    between atoms: _162  and  _164
REMARK   70  A    between atoms: _164  and  _165
REMARK   71  A    between atoms: _164  and  _167
REMARK   72  A    between atoms: _167  and  _168
REMARK   73  A    between atoms: _168  and  _169
REMARK   74  A    between atoms: _169  and  _170
REMARK   75  A    between atoms: _179  and  _181
REMARK   76  A    between atoms: _181  and  _182
REMARK   77  A    between atoms: _181  and  _184
REMARK   78  A    between atoms: _184  and  _185
REMARK   79  A    between atoms: _191  and  _193
REMARK   80  A    between atoms: _193  and  _194
REMARK   81  A    between atoms: _193  and  _196
REMARK   82  A    between atoms: _196  and  _197
REMARK   83  A    between atoms: _200  and  _202
REMARK   84  A    between atoms: _202  and  _203
REMARK   85  A    between atoms: _202  and  _205
REMARK   86  A    between atoms: _205  and  _206
REMARK   87  A    between atoms: _211  and  _213
REMARK   88  A    between atoms: _213  and  _214
REMARK   89  A    between atoms: _213  and  _216
REMARK   90  A    between atoms: _216  and  _217
REMARK   91  A    between atoms: _221  and  _222
REMARK   92  A    between atoms: _227  and  _229
REMARK   93  A    between atoms: _229  and  _230
REMARK   94  A    between atoms: _229  and  _232
REMARK   95  A    between atoms: _232  and  _233
REMARK   96  A    between atoms: _236  and  _238
REMARK   97  A    between atoms: _238  and  _239
REMARK   98  A    between atoms: _238  and  _241
REMARK   99  A    between atoms: _241  and  _242
REMARK  100  A    between atoms: _245  and  _247
REMARK  101  A    between atoms: _247  and  _248
REMARK  102  A    between atoms: _247  and  _250
REMARK  103  A    between atoms: _250  and  _251
REMARK  104  A    between atoms: _254  and  _256
REMARK  105  A    between atoms: _256  and  _257
REMARK  106  A    between atoms: _256  and  _259
REMARK  107  A    between atoms: _259  and  _260
REMARK  108  A    between atoms: _260  and  _261
REMARK  109  A    between atoms: _261  and  _262
REMARK  110  A    between atoms: _262  and  _263
REMARK  111  A    between atoms: _267  and  _269
REMARK  112  A    between atoms: _269  and  _270
REMARK  113  A    between atoms: _269  and  _272
REMARK  114  A    between atoms: _272  and  _273
REMARK  115  A    between atoms: _273  and  _274
REMARK  116  A    between atoms: _277  and  _279
REMARK  117  A    between atoms: _279  and  _280
REMARK  118  A    between atoms: _279  and  _282
REMARK  119  A    between atoms: _282  and  _283
REMARK  120  A    between atoms: _283  and  _284
REMARK  121  A    between atoms: _284  and  _285
REMARK  122  A    between atoms: _294  and  _296
REMARK  123  A    between atoms: _296  and  _297
REMARK  124  A    between atoms: _296  and  _299
REMARK  125  A    between atoms: _299  and  _300
REMARK  126  A    between atoms: _303  and  _305
REMARK  127  A    between atoms: _305  and  _306
REMARK  128  A    between atoms: _310  and  _311
REMARK  129  A    between atoms: _316  and  _318
REMARK  130  A    between atoms: _318  and  _319
REMARK  131  A    between atoms: _322  and  _324
REMARK  132  A    between atoms: _324  and  _325
REMARK  133  A    between atoms: _324  and  _327
REMARK  134  A    between atoms: _327  and  _328
REMARK  135  A    between atoms: _338  and  _340
REMARK  136  A    between atoms: _340  and  _341
REMARK  137  A    between atoms: _340  and  _343
REMARK  138  A    between atoms: _343  and  _344
REMARK  139  A    between atoms: _347  and  _348
REMARK  140  A    between atoms: _353  and  _355
REMARK  141  A    between atoms: _355  and  _356
REMARK  142  A    between atoms: _355  and  _358
REMARK  143  A    between atoms: _358  and  _359
REMARK  144  A    between atoms: _359  and  _360
REMARK  145  A    between atoms: _360  and  _361
REMARK  146  A    between atoms: _370  and  _372
REMARK  147  A    between atoms: _372  and  _373
REMARK  148  A    between atoms: _372  and  _375
REMARK  149  A    between atoms: _375  and  _376
REMARK  150  A    between atoms: _379  and  _381
REMARK  151  A    between atoms: _381  and  _382
REMARK  152  A    between atoms: _381  and  _384
REMARK  153  A    between atoms: _384  and  _385
REMARK  154  A    between atoms: _388  and  _390
REMARK  155  A    between atoms: _390  and  _391
REMARK  156  A    between atoms: _390  and  _393
REMARK  157  A    between atoms: _393  and  _394
REMARK  158  A    between atoms: _397  and  _399
REMARK  159  A    between atoms: _399  and  _400
REMARK  160  A    between atoms: _399  and  _402
REMARK  161  A    between atoms: _402  and  _403
REMARK  162  A    between atoms: _406  and  _408
REMARK  163  A    between atoms: _408  and  _409
REMARK  164  A    between atoms: _408  and  _411
REMARK  165  A    between atoms: _411  and  _412
REMARK  166  A    between atoms: _415  and  _417
REMARK  167  A    between atoms: _417  and  _418
REMARK  168  A    between atoms: _417  and  _420
REMARK  169  A    between atoms: _420  and  _421
REMARK  170  A    between atoms: _424  and  _426
REMARK  171  A    between atoms: _426  and  _427
REMARK  172  A    between atoms: _430  and  _432
REMARK  173  A    between atoms: _432  and  _433
REMARK  174  A    between atoms: _432  and  _435
REMARK  175  A    between atoms: _435  and  _436
REMARK  176  A    between atoms: _439  and  _441
REMARK  177  A    between atoms: _441  and  _442
REMARK  178  A    between atoms: _441  and  _444
REMARK  179  A    between atoms: _444  and  _445
REMARK  180  A    between atoms: _448  and  _450
REMARK  181  A    between atoms: _450  and  _451
REMARK  182  A    between atoms: _450  and  _453
REMARK  183  A    between atoms: _453  and  _454
REMARK  184  A    between atoms: _457  and  _459
REMARK  185  A    between atoms: _459  and  _460
REMARK  186  A    between atoms: _459  and  _462
REMARK  187  A    between atoms: _462  and  _463
REMARK  188  A    between atoms: _463  and  _464
REMARK  189  A    between atoms: _464  and  _465
REMARK  190  A    between atoms: _465  and  _466
REMARK  191  A    between atoms: _470  and  _472
REMARK  192  A    between atoms: _472  and  _473
REMARK  193  A    between atoms: _472  and  _475
REMARK  194  A    between atoms: _475  and  _476
REMARK  195  A    between atoms: _479  and  _481
REMARK  196  A    between atoms: _481  and  _482
REMARK  197  A    between atoms: _481  and  _484
REMARK  198  A    between atoms: _484  and  _485
REMARK  199  A    between atoms: _488  and  _490
REMARK  200  A    between atoms: _490  and  _491
REMARK  201  A    between atoms: _490  and  _493
REMARK  202  A    between atoms: _493  and  _494
REMARK  203  A    between atoms: _498  and  _499
REMARK  204  A    between atoms: _504  and  _506
REMARK  205  A    between atoms: _506  and  _507
REMARK  206  A    between atoms: _506  and  _509
REMARK  207  A    between atoms: _509  and  _510
REMARK  208  A    between atoms: _515  and  _517
REMARK  209  A    between atoms: _517  and  _518
REMARK  210  A    between atoms: _517  and  _520
REMARK  211  A    between atoms: _520  and  _521
REMARK  212  A    between atoms: _521  and  _522
REMARK  213  A    between atoms: _522  and  _523
REMARK  214  A    between atoms: _523  and  _524
REMARK  215  A    between atoms: _528  and  _530
REMARK  216  A    between atoms: _530  and  _531
REMARK  217  A    between atoms: _530  and  _533
REMARK  218  A    between atoms: _533  and  _534
REMARK  219  A    between atoms: _534  and  _535
REMARK  220  A    between atoms: _538  and  _540
REMARK  221  A    between atoms: _540  and  _541
REMARK  222  A    between atoms: _540  and  _543
REMARK  223  A    between atoms: _543  and  _544
REMARK  224  A    between atoms: _547  and  _549
REMARK  225  A    between atoms: _549  and  _550
REMARK  226  A    between atoms: _549  and  _552
REMARK  227  A    between atoms: _552  and  _553
REMARK  228  A    between atoms: _553  and  _554
REMARK  229  A    between atoms: _554  and  _555
REMARK  230  A    between atoms: _564  and  _566
REMARK  231  A    between atoms: _566  and  _567
REMARK  232  A    between atoms: _566  and  _569
REMARK  233  A    between atoms: _569  and  _570
REMARK  234  A    between atoms: _572  and  _574
REMARK  235  A    between atoms: _574  and  _575
REMARK  236  A    between atoms: _574  and  _577
REMARK  237  A    between atoms: _577  and  _578
REMARK  238  A    between atoms: _584  and  _586
REMARK  239  A    between atoms: _586  and  _587
REMARK  240  A    between atoms: _590  and  _592
REMARK  241  A    between atoms: _592  and  _593
REMARK  242  A    between atoms: _592  and  _595
REMARK  243  A    between atoms: _595  and  _596
REMARK  244  A    between atoms: _596  and  _597
REMARK  245  A    between atoms: _600  and  _602
REMARK  246  A    between atoms: _602  and  _603
REMARK  247  A    between atoms: _602  and  _605
REMARK  248  A    between atoms: _605  and  _606
REMARK                            x       y       z     vdW  Elec       q    Type
REMARK                         _______ _______ _______ _____ _____    ______ ____
ROOT
ATOM      1  O   HOH     1       6.166  32.755 -10.669  0.00  0.00    +0.000 OA
ENDROOT
TORSDOF 0
REMARK  Name = ../refined-set-2016/4pzv/4pzv_pocket.pdb
REMARK  248 active torsions:
REMARK  status: ('A' for Active; 'I' for Inactive)
REMARK    1  A    between atoms: _1  and  _3
REMARK    2  A    between atoms: _3  and  _4
REMARK    3  A    between atoms: _3  and  _6
REMARK    4  A    between atoms: _6  and  _7
REMARK    5  A    between atoms: _10  and  _12
REMARK    6  A    between atoms: _12  and  _13
REMARK    7  A    between atoms: _12  and  _15
REMARK    8  A    between atoms: _15  and  _16
REMARK    9  A    between atoms: _19  and  _21
REMARK   10  A    between atoms: _21  and  _22
REMARK   11  A    between atoms: _24  and  _26
REMARK   12  A    between atoms: _26  and  _27
REMARK   13  A    between atoms: _26  and  _29
REMARK   14  A    between atoms: _29  and  _30
REMARK   15  A    between atoms: _33  and  _35
REMARK   16  A    between atoms: _35  and  _36
REMARK   17  A    between atoms: _38  and  _40
REMARK   18  A    between atoms: _40  and  _41
REMARK   19  A    between atoms: _40  and  _43
REMARK   20  A    between atoms: _43  and  _44
REMARK   21  A    between atoms: _47  and  _49
REMARK   22  A    between atoms: _49  and  _50
REMARK   23  A    between atoms: _49  and  _52
REMARK   24  A    between atoms: _52  and  _53
REMARK   25  A    between atoms: _58  and  _60
REMARK   26  A    between atoms: _60  and  _61
REMARK   27  A    between atoms: _60  and  _63
REMARK   28  A    between atoms: _63  and  _64
REMARK   29  A    between atoms: _69  and  _70
REMARK   30  A    between atoms: _72  and  _74
REMARK   31  A    between atoms: _74  and  _75
REMARK   32  A    between atoms: _74  and  _77
REMARK   33  A    between atoms: _77  and  _78
REMARK   34  A    between atoms: _80  and  _82
REMARK   35  A    between atoms: _82  and  _83
REMARK   36  A    between atoms: _82  and  _85
REMARK   37  A    between atoms: _85  and  _86
REMARK   38  A    between atoms: _88  and  _90
REMARK   39  A    between atoms: _90  and  _91
REMARK   40  A    between atoms: _90  and  _93
REMARK   41  A    between atoms: _93  and  _94
REMARK   42  A    between atoms: _94  and  _95
REMARK   43  A    between atoms: _95  and  _96
REMARK   44  A    between atoms: _96  and  _97
REMARK   45  A    between atoms: _101  and  _103
REMARK   46  A    between atoms: _103  and  _104
REMARK   47  A    between atoms: _107  and  _109
REMARK   48  A    between atoms: _109  and  _110
REMARK   49  A    between atoms: _109  and  _112
REMARK   50  A    between atoms: _115  and  _117
REMARK   51  A    between atoms: _117  and  _118
REMARK   52  A    between atoms: _117  and  _120
REMARK   53  A    between atoms: _120  and  _121
REMARK   54  A    between atoms: _124  and  _126
REMARK   55  A    between atoms: _126  and  _127
REMARK   56  A    between atoms: _126  and  _129
REMARK   57  A    between atoms: _129  and  _130
REMARK   58  A    between atoms: _130  and  _131
REMARK   59  A    between atoms: _131  and  _132
REMARK   60  A    between atoms: _132  and  _133
REMARK   61  A    between atoms: _137  and  _139
REMARK   62  A    between atoms: _139  and  _140
REMARK   63  A    between atoms: _139  and  _142
REMARK   64  A    between atoms: _142  and  _143
REMARK   65  A    between atoms: _153  and  _155
REMARK   66  A    between atoms: _155  and  _156
REMARK   67  A    between atoms: _155  and  _158
REMARK   68  A    between atoms: _158  and  _159
REMARK   69  A    between atoms: _162  and  _164
REMARK   70  A    between atoms: _164  and  _165
REMARK   71  A    between atoms: _164  and  _167
REMARK   72  A    between atoms: _167  and  _168
REMARK   73  A    between atoms: _168  and  _169
REMARK   74  A    between atoms: _169  and  _170
REMARK   75  A    between atoms: _179  and  _181
REMARK   76  A    between atoms: _181  and  _182
REMARK   77  A    between atoms: _181  and  _184
REMARK   78  A    between atoms: _184  and  _185
REMARK   79  A    between atoms: _191  and  _193
REMARK   80  A    between atoms: _193  and  _194
REMARK   81  A    between atoms: _193  and  _196
REMARK   82  A    between atoms: _196  and  _197
REMARK   83  A    between atoms: _200  and  _202
REMARK   84  A    between atoms: _202  and  _203
REMARK   85  A    between atoms: _202  and  _205
REMARK   86  A    between atoms: _205  and  _206
REMARK   87  A    between atoms: _211  and  _213
REMARK   88  A    between atoms: _213  and  _214
REMARK   89  A    between atoms: _213  and  _216
REMARK   90  A    between atoms: _216  and  _217
REMARK   91  A    between atoms: _221  and  _222
REMARK   92  A    between atoms: _227  and  _229
REMARK   93  A    between atoms: _229  and  _230
REMARK   94  A    between atoms: _229  and  _232
REMARK   95  A    between atoms: _232  and  _233
REMARK   96  A    between atoms: _236  and  _238
REMARK   97  A    between atoms: _238  and  _239
REMARK   98  A    between atoms: _238  and  _241
REMARK   99  A    between atoms: _241  and  _242
REMARK  100  A    between atoms: _245  and  _247
REMARK  101  A    between atoms: _247  and  _248
REMARK  102  A    between atoms: _247  and  _250
REMARK  103  A    between atoms: _250  and  _251
REMARK  104  A    between atoms: _254  and  _256
REMARK  105  A    between atoms: _256  and  _257
REMARK  106  A    between atoms: _256  and  _259
REMARK  107  A    between atoms: _259  and  _260
REMARK  108  A    between atoms: _260  and  _261
REMARK  109  A    between atoms: _261  and  _262
REMARK  110  A    between atoms: _262  and  _263
REMARK  111  A    between atoms: _267  and  _269
REMARK  112  A    between atoms: _269  and  _270
REMARK  113  A    between atoms: _269  and  _272
REMARK  114  A    between atoms: _272  and  _273
REMARK  115  A    between atoms: _273  and  _274
REMARK  116  A    between atoms: _277  and  _279
REMARK  117  A    between atoms: _279  and  _280
REMARK  118  A    between atoms: _279  and  _282
REMARK  119  A    between atoms: _282  and  _283
REMARK  120  A    between atoms: _283  and  _284
REMARK  121  A    between atoms: _284  and  _285
REMARK  122  A    between atoms: _294  and  _296
REMARK  123  A    between atoms: _296  and  _297
REMARK  124  A    between atoms: _296  and  _299
REMARK  125  A    between atoms: _299  and  _300
REMARK  126  A    between atoms: _303  and  _305
REMARK  127  A    between atoms: _305  and  _306
REMARK  128  A    between atoms: _310  and  _311
REMARK  129  A    between atoms: _316  and  _318
REMARK  130  A    between atoms: _318  and  _319
REMARK  131  A    between atoms: _322  and  _324
REMARK  132  A    between atoms: _324  and  _325
REMARK  133  A    between atoms: _324  and  _327
REMARK  134  A    between atoms: _327  and  _328
REMARK  135  A    between atoms: _338  and  _340
REMARK  136  A    between atoms: _340  and  _341
REMARK  137  A    between atoms: _340  and  _343
REMARK  138  A    between atoms: _343  and  _344
REMARK  139  A    between atoms: _347  and  _348
REMARK  140  A    between atoms: _353  and  _355
REMARK  141  A    between atoms: _355  and  _356
REMARK  142  A    between atoms: _355  and  _358
REMARK  143  A    between atoms: _358  and  _359
REMARK  144  A    between atoms: _359  and  _360
REMARK  145  A    between atoms: _360  and  _361
REMARK  146  A    between atoms: _370  and  _372
REMARK  147  A    between atoms: _372  and  _373
REMARK  148  A    between atoms: _372  and  _375
REMARK  149  A    between atoms: _375  and  _376
REMARK  150  A    between atoms: _379  and  _381
REMARK  151  A    between atoms: _381  and  _382
REMARK  152  A    between atoms: _381  and  _384
REMARK  153  A    between atoms: _384  and  _385
REMARK  154  A    between atoms: _388  and  _390
REMARK  155  A    between atoms: _390  and  _391
REMARK  156  A    between atoms: _390  and  _393
REMARK  157  A    between atoms: _393  and  _394
REMARK  158  A    between atoms: _397  and  _399
REMARK  159  A    between atoms: _399  and  _400
REMARK  160  A    between atoms: _399  and  _402
REMARK  161  A    between atoms: _402  and  _403
REMARK  162  A    between atoms: _406  and  _408
REMARK  163  A    between atoms: _408  and  _409
REMARK  164  A    between atoms: _408  and  _411
REMARK  165  A    between atoms: _411  and  _412
REMARK  166  A    between atoms: _415  and  _417
REMARK  167  A    between atoms: _417  and  _418
REMARK  168  A    between atoms: _417  and  _420
REMARK  169  A    between atoms: _420  and  _421
REMARK  170  A    between atoms: _424  and  _426
REMARK  171  A    between atoms: _426  and  _427
REMARK  172  A    between atoms: _430  and  _432
REMARK  173  A    between atoms: _432  and  _433
REMARK  174  A    between atoms: _432  and  _435
REMARK  175  A    between atoms: _435  and  _436
REMARK  176  A    between atoms: _439  and  _441
REMARK  177  A    between atoms: _441  and  _442
REMARK  178  A    between atoms: _441  and  _444
REMARK  179  A    between atoms: _444  and  _445
REMARK  180  A    between atoms: _448  and  _450
REMARK  181  A    between atoms: _450  and  _451
REMARK  182  A    between atoms: _450  and  _453
REMARK  183  A    between atoms: _453  and  _454
REMARK  184  A    between atoms: _457  and  _459
REMARK  185  A    between atoms: _459  and  _460
REMARK  186  A    between atoms: _459  and  _462
REMARK  187  A    between atoms: _462  and  _463
REMARK  188  A    between atoms: _463  and  _464
REMARK  189  A    between atoms: _464  and  _465
REMARK  190  A    between atoms: _465  and  _466
REMARK  191  A    between atoms: _470  and  _472
REMARK  192  A    between atoms: _472  and  _473
REMARK  193  A    between atoms: _472  and  _475
REMARK  194  A    between atoms: _475  and  _476
REMARK  195  A    between atoms: _479  and  _481
REMARK  196  A    between atoms: _481  and  _482
REMARK  197  A    between atoms: _481  and  _484
REMARK  198  A    between atoms: _484  and  _485
REMARK  199  A    between atoms: _488  and  _490
REMARK  200  A    between atoms: _490  and  _491
REMARK  201  A    between atoms: _490  and  _493
REMARK  202  A    between atoms: _493  and  _494
REMARK  203  A    between atoms: _498  and  _499
REMARK  204  A    between atoms: _504  and  _506
REMARK  205  A    between atoms: _506  and  _507
REMARK  206  A    between atoms: _506  and  _509
REMARK  207  A    between atoms: _509  and  _510
REMARK  208  A    between atoms: _515  and  _517
REMARK  209  A    between atoms: _517  and  _518
REMARK  210  A    between atoms: _517  and  _520
REMARK  211  A    between atoms: _520  and  _521
REMARK  212  A    between atoms: _521  and  _522
REMARK  213  A    between atoms: _522  and  _523
REMARK  214  A    between atoms: _523  and  _524
REMARK  215  A    between atoms: _528  and  _530
REMARK  216  A    between atoms: _530  and  _531
REMARK  217  A    between atoms: _530  and  _533
REMARK  218  A    between atoms: _533  and  _534
REMARK  219  A    between atoms: _534  and  _535
REMARK  220  A    between atoms: _538  and  _540
REMARK  221  A    between atoms: _540  and  _541
REMARK  222  A    between atoms: _540  and  _543
REMARK  223  A    between atoms: _543  and  _544
REMARK  224  A    between atoms: _547  and  _549
REMARK  225  A    between atoms: _549  and  _550
REMARK  226  A    between atoms: _549  and  _552
REMARK  227  A    between atoms: _552  and  _553
REMARK  228  A    between atoms: _553  and  _554
REMARK  229  A    between atoms: _554  and  _555
REMARK  230  A    between atoms: _564  and  _566
REMARK  231  A    between atoms: _566  and  _567
REMARK  232  A    between atoms: _566  and  _569
REMARK  233  A    between atoms: _569  and  _570
REMARK  234  A    between atoms: _572  and  _574
REMARK  235  A    between atoms: _574  and  _575
REMARK  236  A    between atoms: _574  and  _577
REMARK  237  A    between atoms: _577  and  _578
REMARK  238  A    between atoms: _584  and  _586
REMARK  239  A    between atoms: _586  and  _587
REMARK  240  A    between atoms: _590  and  _592
REMARK  241  A    between atoms: _592  and  _593
REMARK  242  A    between atoms: _592  and  _595
REMARK  243  A    between atoms: _595  and  _596
REMARK  244  A    between atoms: _596  and  _597
REMARK  245  A    between atoms: _600  and  _602
REMARK  246  A    between atoms: _602  and  _603
REMARK  247  A    between atoms: _602  and  _605
REMARK  248  A    between atoms: _605  and  _606
REMARK                            x       y       z     vdW  Elec       q    Type
REMARK                         _______ _______ _______ _____ _____    ______ ____
ROOT
ATOM      1  O   HOH     1      -3.927  36.468  -9.877  0.00  0.00    +0.000 OA
ENDROOT
TORSDOF 0
REMARK  Name = ../refined-set-2016/4pzv/4pzv_pocket.pdb
REMARK  248 active torsions:
REMARK  status: ('A' for Active; 'I' for Inactive)
REMARK    1  A    between atoms: _1  and  _3
REMARK    2  A    between atoms: _3  and  _4
REMARK    3  A    between atoms: _3  and  _6
REMARK    4  A    between atoms: _6  and  _7
REMARK    5  A    between atoms: _10  and  _12
REMARK    6  A    between atoms: _12  and  _13
REMARK    7  A    between atoms: _12  and  _15
REMARK    8  A    between atoms: _15  and  _16
REMARK    9  A    between atoms: _19  and  _21
REMARK   10  A    between atoms: _21  and  _22
REMARK   11  A    between atoms: _24  and  _26
REMARK   12  A    between atoms: _26  and  _27
REMARK   13  A    between atoms: _26  and  _29
REMARK   14  A    between atoms: _29  and  _30
REMARK   15  A    between atoms: _33  and  _35
REMARK   16  A    between atoms: _35  and  _36
REMARK   17  A    between atoms: _38  and  _40
REMARK   18  A    between atoms: _40  and  _41
REMARK   19  A    between atoms: _40  and  _43
REMARK   20  A    between atoms: _43  and  _44
REMARK   21  A    between atoms: _47  and  _49
REMARK   22  A    between atoms: _49  and  _50
REMARK   23  A    between atoms: _49  and  _52
REMARK   24  A    between atoms: _52  and  _53
REMARK   25  A    between atoms: _58  and  _60
REMARK   26  A    between atoms: _60  and  _61
REMARK   27  A    between atoms: _60  and  _63
REMARK   28  A    between atoms: _63  and  _64
REMARK   29  A    between atoms: _69  and  _70
REMARK   30  A    between atoms: _72  and  _74
REMARK   31  A    between atoms: _74  and  _75
REMARK   32  A    between atoms: _74  and  _77
REMARK   33  A    between atoms: _77  and  _78
REMARK   34  A    between atoms: _80  and  _82
REMARK   35  A    between atoms: _82  and  _83
REMARK   36  A    between atoms: _82  and  _85
REMARK   37  A    between atoms: _85  and  _86
REMARK   38  A    between atoms: _88  and  _90
REMARK   39  A    between atoms: _90  and  _91
REMARK   40  A    between atoms: _90  and  _93
REMARK   41  A    between atoms: _93  and  _94
REMARK   42  A    between atoms: _94  and  _95
REMARK   43  A    between atoms: _95  and  _96
REMARK   44  A    between atoms: _96  and  _97
REMARK   45  A    between atoms: _101  and  _103
REMARK   46  A    between atoms: _103  and  _104
REMARK   47  A    between atoms: _107  and  _109
REMARK   48  A    between atoms: _109  and  _110
REMARK   49  A    between atoms: _109  and  _112
REMARK   50  A    between atoms: _115  and  _117
REMARK   51  A    between atoms: _117  and  _118
REMARK   52  A    between atoms: _117  and  _120
REMARK   53  A    between atoms: _120  and  _121
REMARK   54  A    between atoms: _124  and  _126
REMARK   55  A    between atoms: _126  and  _127
REMARK   56  A    between atoms: _126  and  _129
REMARK   57  A    between atoms: _129  and  _130
REMARK   58  A    between atoms: _130  and  _131
REMARK   59  A    between atoms: _131  and  _132
REMARK   60  A    between atoms: _132  and  _133
REMARK   61  A    between atoms: _137  and  _139
REMARK   62  A    between atoms: _139  and  _140
REMARK   63  A    between atoms: _139  and  _142
REMARK   64  A    between atoms: _142  and  _143
REMARK   65  A    between atoms: _153  and  _155
REMARK   66  A    between atoms: _155  and  _156
REMARK   67  A    between atoms: _155  and  _158
REMARK   68  A    between atoms: _158  and  _159
REMARK   69  A    between atoms: _162  and  _164
REMARK   70  A    between atoms: _164  and  _165
REMARK   71  A    between atoms: _164  and  _167
REMARK   72  A    between atoms: _167  and  _168
REMARK   73  A    between atoms: _168  and  _169
REMARK   74  A    between atoms: _169  and  _170
REMARK   75  A    between atoms: _179  and  _181
REMARK   76  A    between atoms: _181  and  _182
REMARK   77  A    between atoms: _181  and  _184
REMARK   78  A    between atoms: _184  and  _185
REMARK   79  A    between atoms: _191  and  _193
REMARK   80  A    between atoms: _193  and  _194
REMARK   81  A    between atoms: _193  and  _196
REMARK   82  A    between atoms: _196  and  _197
REMARK   83  A    between atoms: _200  and  _202
REMARK   84  A    between atoms: _202  and  _203
REMARK   85  A    between atoms: _202  and  _205
REMARK   86  A    between atoms: _205  and  _206
REMARK   87  A    between atoms: _211  and  _213
REMARK   88  A    between atoms: _213  and  _214
REMARK   89  A    between atoms: _213  and  _216
REMARK   90  A    between atoms: _216  and  _217
REMARK   91  A    between atoms: _221  and  _222
REMARK   92  A    between atoms: _227  and  _229
REMARK   93  A    between atoms: _229  and  _230
REMARK   94  A    between atoms: _229  and  _232
REMARK   95  A    between atoms: _232  and  _233
REMARK   96  A    between atoms: _236  and  _238
REMARK   97  A    between atoms: _238  and  _239
REMARK   98  A    between atoms: _238  and  _241
REMARK   99  A    between atoms: _241  and  _242
REMARK  100  A    between atoms: _245  and  _247
REMARK  101  A    between atoms: _247  and  _248
REMARK  102  A    between atoms: _247  and  _250
REMARK  103  A    between atoms: _250  and  _251
REMARK  104  A    between atoms: _254  and  _256
REMARK  105  A    between atoms: _256  and  _257
REMARK  106  A    between atoms: _256  and  _259
REMARK  107  A    between atoms: _259  and  _260
REMARK  108  A    between atoms: _260  and  _261
REMARK  109  A    between atoms: _261  and  _262
REMARK  110  A    between atoms: _262  and  _263
REMARK  111  A    between atoms: _267  and  _269
REMARK  112  A    between atoms: _269  and  _270
REMARK  113  A    between atoms: _269  and  _272
REMARK  114  A    between atoms: _272  and  _273
REMARK  115  A    between atoms: _273  and  _274
REMARK  116  A    between atoms: _277  and  _279
REMARK  117  A    between atoms: _279  and  _280
REMARK  118  A    between atoms: _279  and  _282
REMARK  119  A    between atoms: _282  and  _283
REMARK  120  A    between atoms: _283  and  _284
REMARK  121  A    between atoms: _284  and  _285
REMARK  122  A    between atoms: _294  and  _296
REMARK  123  A    between atoms: _296  and  _297
REMARK  124  A    between atoms: _296  and  _299
REMARK  125  A    between atoms: _299  and  _300
REMARK  126  A    between atoms: _303  and  _305
REMARK  127  A    between atoms: _305  and  _306
REMARK  128  A    between atoms: _310  and  _311
REMARK  129  A    between atoms: _316  and  _318
REMARK  130  A    between atoms: _318  and  _319
REMARK  131  A    between atoms: _322  and  _324
REMARK  132  A    between atoms: _324  and  _325
REMARK  133  A    between atoms: _324  and  _327
REMARK  134  A    between atoms: _327  and  _328
REMARK  135  A    between atoms: _338  and  _340
REMARK  136  A    between atoms: _340  and  _341
REMARK  137  A    between atoms: _340  and  _343
REMARK  138  A    between atoms: _343  and  _344
REMARK  139  A    between atoms: _347  and  _348
REMARK  140  A    between atoms: _353  and  _355
REMARK  141  A    between atoms: _355  and  _356
REMARK  142  A    between atoms: _355  and  _358
REMARK  143  A    between atoms: _358  and  _359
REMARK  144  A    between atoms: _359  and  _360
REMARK  145  A    between atoms: _360  and  _361
REMARK  146  A    between atoms: _370  and  _372
REMARK  147  A    between atoms: _372  and  _373
REMARK  148  A    between atoms: _372  and  _375
REMARK  149  A    between atoms: _375  and  _376
REMARK  150  A    between atoms: _379  and  _381
REMARK  151  A    between atoms: _381  and  _382
REMARK  152  A    between atoms: _381  and  _384
REMARK  153  A    between atoms: _384  and  _385
REMARK  154  A    between atoms: _388  and  _390
REMARK  155  A    between atoms: _390  and  _391
REMARK  156  A    between atoms: _390  and  _393
REMARK  157  A    between atoms: _393  and  _394
REMARK  158  A    between atoms: _397  and  _399
REMARK  159  A    between atoms: _399  and  _400
REMARK  160  A    between atoms: _399  and  _402
REMARK  161  A    between atoms: _402  and  _403
REMARK  162  A    between atoms: _406  and  _408
REMARK  163  A    between atoms: _408  and  _409
REMARK  164  A    between atoms: _408  and  _411
REMARK  165  A    between atoms: _411  and  _412
REMARK  166  A    between atoms: _415  and  _417
REMARK  167  A    between atoms: _417  and  _418
REMARK  168  A    between atoms: _417  and  _420
REMARK  169  A    between atoms: _420  and  _421
REMARK  170  A    between atoms: _424  and  _426
REMARK  171  A    between atoms: _426  and  _427
REMARK  172  A    between atoms: _430  and  _432
REMARK  173  A    between atoms: _432  and  _433
REMARK  174  A    between atoms: _432  and  _435
REMARK  175  A    between atoms: _435  and  _436
REMARK  176  A    between atoms: _439  and  _441
REMARK  177  A    between atoms: _441  and  _442
REMARK  178  A    between atoms: _441  and  _444
REMARK  179  A    between atoms: _444  and  _445
REMARK  180  A    between atoms: _448  and  _450
REMARK  181  A    between atoms: _450  and  _451
REMARK  182  A    between atoms: _450  and  _453
REMARK  183  A    between atoms: _453  and  _454
REMARK  184  A    between atoms: _457  and  _459
REMARK  185  A    between atoms: _459  and  _460
REMARK  186  A    between atoms: _459  and  _462
REMARK  187  A    between atoms: _462  and  _463
REMARK  188  A    between atoms: _463  and  _464
REMARK  189  A    between atoms: _464  and  _465
REMARK  190  A    between atoms: _465  and  _466
REMARK  191  A    between atoms: _470  and  _472
REMARK  192  A    between atoms: _472  and  _473
REMARK  193  A    between atoms: _472  and  _475
REMARK  194  A    between atoms: _475  and  _476
REMARK  195  A    between atoms: _479  and  _481
REMARK  196  A    between atoms: _481  and  _482
REMARK  197  A    between atoms: _481  and  _484
REMARK  198  A    between atoms: _484  and  _485
REMARK  199  A    between atoms: _488  and  _490
REMARK  200  A    between atoms: _490  and  _491
REMARK  201  A    between atoms: _490  and  _493
REMARK  202  A    between atoms: _493  and  _494
REMARK  203  A    between atoms: _498  and  _499
REMARK  204  A    between atoms: _504  and  _506
REMARK  205  A    between atoms: _506  and  _507
REMARK  206  A    between atoms: _506  and  _509
REMARK  207  A    between atoms: _509  and  _510
REMARK  208  A    between atoms: _515  and  _517
REMARK  209  A    between atoms: _517  and  _518
REMARK  210  A    between atoms: _517  and  _520
REMARK  211  A    between atoms: _520  and  _521
REMARK  212  A    between atoms: _521  and  _522
REMARK  213  A    between atoms: _522  and  _523
REMARK  214  A    between atoms: _523  and  _524
REMARK  215  A    between atoms: _528  and  _530
REMARK  216  A    between atoms: _530  and  _531
REMARK  217  A    between atoms: _530  and  _533
REMARK  218  A    between atoms: _533  and  _534
REMARK  219  A    between atoms: _534  and  _535
REMARK  220  A    between atoms: _538  and  _540
REMARK  221  A    between atoms: _540  and  _541
REMARK  222  A    between atoms: _540  and  _543
REMARK  223  A    between atoms: _543  and  _544
REMARK  224  A    between atoms: _547  and  _549
REMARK  225  A    between atoms: _549  and  _550
REMARK  226  A    between atoms: _549  and  _552
REMARK  227  A    between atoms: _552  and  _553
REMARK  228  A    between atoms: _553  and  _554
REMARK  229  A    between atoms: _554  and  _555
REMARK  230  A    between atoms: _564  and  _566
REMARK  231  A    between atoms: _566  and  _567
REMARK  232  A    between atoms: _566  and  _569
REMARK  233  A    between atoms: _569  and  _570
REMARK  234  A    between atoms: _572  and  _574
REMARK  235  A    between atoms: _574  and  _575
REMARK  236  A    between atoms: _574  and  _577
REMARK  237  A    between atoms: _577  and  _578
REMARK  238  A    between atoms: _584  and  _586
REMARK  239  A    between atoms: _586  and  _587
REMARK  240  A    between atoms: _590  and  _592
REMARK  241  A    between atoms: _592  and  _593
REMARK  242  A    between atoms: _592  and  _595
REMARK  243  A    between atoms: _595  and  _596
REMARK  244  A    between atoms: _596  and  _597
REMARK  245  A    between atoms: _600  and  _602
REMARK  246  A    between atoms: _602  and  _603
REMARK  247  A    between atoms: _602  and  _605
REMARK  248  A    between atoms: _605  and  _606
REMARK                            x       y       z     vdW  Elec       q    Type
REMARK                         _______ _______ _______ _____ _____    ______ ____
ROOT
ATOM      1  O   HOH     1      11.558  21.286 -14.287  0.00  0.00    +0.000 OA
ENDROOT
TORSDOF 0
REMARK  Name = ../refined-set-2016/4pzv/4pzv_pocket.pdb
REMARK  248 active torsions:
REMARK  status: ('A' for Active; 'I' for Inactive)
REMARK    1  A    between atoms: _1  and  _3
REMARK    2  A    between atoms: _3  and  _4
REMARK    3  A    between atoms: _3  and  _6
REMARK    4  A    between atoms: _6  and  _7
REMARK    5  A    between atoms: _10  and  _12
REMARK    6  A    between atoms: _12  and  _13
REMARK    7  A    between atoms: _12  and  _15
REMARK    8  A    between atoms: _15  and  _16
REMARK    9  A    between atoms: _19  and  _21
REMARK   10  A    between atoms: _21  and  _22
REMARK   11  A    between atoms: _24  and  _26
REMARK   12  A    between atoms: _26  and  _27
REMARK   13  A    between atoms: _26  and  _29
REMARK   14  A    between atoms: _29  and  _30
REMARK   15  A    between atoms: _33  and  _35
REMARK   16  A    between atoms: _35  and  _36
REMARK   17  A    between atoms: _38  and  _40
REMARK   18  A    between atoms: _40  and  _41
REMARK   19  A    between atoms: _40  and  _43
REMARK   20  A    between atoms: _43  and  _44
REMARK   21  A    between atoms: _47  and  _49
REMARK   22  A    between atoms: _49  and  _50
REMARK   23  A    between atoms: _49  and  _52
REMARK   24  A    between atoms: _52  and  _53
REMARK   25  A    between atoms: _58  and  _60
REMARK   26  A    between atoms: _60  and  _61
REMARK   27  A    between atoms: _60  and  _63
REMARK   28  A    between atoms: _63  and  _64
REMARK   29  A    between atoms: _69  and  _70
REMARK   30  A    between atoms: _72  and  _74
REMARK   31  A    between atoms: _74  and  _75
REMARK   32  A    between atoms: _74  and  _77
REMARK   33  A    between atoms: _77  and  _78
REMARK   34  A    between atoms: _80  and  _82
REMARK   35  A    between atoms: _82  and  _83
REMARK   36  A    between atoms: _82  and  _85
REMARK   37  A    between atoms: _85  and  _86
REMARK   38  A    between atoms: _88  and  _90
REMARK   39  A    between atoms: _90  and  _91
REMARK   40  A    between atoms: _90  and  _93
REMARK   41  A    between atoms: _93  and  _94
REMARK   42  A    between atoms: _94  and  _95
REMARK   43  A    between atoms: _95  and  _96
REMARK   44  A    between atoms: _96  and  _97
REMARK   45  A    between atoms: _101  and  _103
REMARK   46  A    between atoms: _103  and  _104
REMARK   47  A    between atoms: _107  and  _109
REMARK   48  A    between atoms: _109  and  _110
REMARK   49  A    between atoms: _109  and  _112
REMARK   50  A    between atoms: _115  and  _117
REMARK   51  A    between atoms: _117  and  _118
REMARK   52  A    between atoms: _117  and  _120
REMARK   53  A    between atoms: _120  and  _121
REMARK   54  A    between atoms: _124  and  _126
REMARK   55  A    between atoms: _126  and  _127
REMARK   56  A    between atoms: _126  and  _129
REMARK   57  A    between atoms: _129  and  _130
REMARK   58  A    between atoms: _130  and  _131
REMARK   59  A    between atoms: _131  and  _132
REMARK   60  A    between atoms: _132  and  _133
REMARK   61  A    between atoms: _137  and  _139
REMARK   62  A    between atoms: _139  and  _140
REMARK   63  A    between atoms: _139  and  _142
REMARK   64  A    between atoms: _142  and  _143
REMARK   65  A    between atoms: _153  and  _155
REMARK   66  A    between atoms: _155  and  _156
REMARK   67  A    between atoms: _155  and  _158
REMARK   68  A    between atoms: _158  and  _159
REMARK   69  A    between atoms: _162  and  _164
REMARK   70  A    between atoms: _164  and  _165
REMARK   71  A    between atoms: _164  and  _167
REMARK   72  A    between atoms: _167  and  _168
REMARK   73  A    between atoms: _168  and  _169
REMARK   74  A    between atoms: _169  and  _170
REMARK   75  A    between atoms: _179  and  _181
REMARK   76  A    between atoms: _181  and  _182
REMARK   77  A    between atoms: _181  and  _184
REMARK   78  A    between atoms: _184  and  _185
REMARK   79  A    between atoms: _191  and  _193
REMARK   80  A    between atoms: _193  and  _194
REMARK   81  A    between atoms: _193  and  _196
REMARK   82  A    between atoms: _196  and  _197
REMARK   83  A    between atoms: _200  and  _202
REMARK   84  A    between atoms: _202  and  _203
REMARK   85  A    between atoms: _202  and  _205
REMARK   86  A    between atoms: _205  and  _206
REMARK   87  A    between atoms: _211  and  _213
REMARK   88  A    between atoms: _213  and  _214
REMARK   89  A    between atoms: _213  and  _216
REMARK   90  A    between atoms: _216  and  _217
REMARK   91  A    between atoms: _221  and  _222
REMARK   92  A    between atoms: _227  and  _229
REMARK   93  A    between atoms: _229  and  _230
REMARK   94  A    between atoms: _229  and  _232
REMARK   95  A    between atoms: _232  and  _233
REMARK   96  A    between atoms: _236  and  _238
REMARK   97  A    between atoms: _238  and  _239
REMARK   98  A    between atoms: _238  and  _241
REMARK   99  A    between atoms: _241  and  _242
REMARK  100  A    between atoms: _245  and  _247
REMARK  101  A    between atoms: _247  and  _248
REMARK  102  A    between atoms: _247  and  _250
REMARK  103  A    between atoms: _250  and  _251
REMARK  104  A    between atoms: _254  and  _256
REMARK  105  A    between atoms: _256  and  _257
REMARK  106  A    between atoms: _256  and  _259
REMARK  107  A    between atoms: _259  and  _260
REMARK  108  A    between atoms: _260  and  _261
REMARK  109  A    between atoms: _261  and  _262
REMARK  110  A    between atoms: _262  and  _263
REMARK  111  A    between atoms: _267  and  _269
REMARK  112  A    between atoms: _269  and  _270
REMARK  113  A    between atoms: _269  and  _272
REMARK  114  A    between atoms: _272  and  _273
REMARK  115  A    between atoms: _273  and  _274
REMARK  116  A    between atoms: _277  and  _279
REMARK  117  A    between atoms: _279  and  _280
REMARK  118  A    between atoms: _279  and  _282
REMARK  119  A    between atoms: _282  and  _283
REMARK  120  A    between atoms: _283  and  _284
REMARK  121  A    between atoms: _284  and  _285
REMARK  122  A    between atoms: _294  and  _296
REMARK  123  A    between atoms: _296  and  _297
REMARK  124  A    between atoms: _296  and  _299
REMARK  125  A    between atoms: _299  and  _300
REMARK  126  A    between atoms: _303  and  _305
REMARK  127  A    between atoms: _305  and  _306
REMARK  128  A    between atoms: _310  and  _311
REMARK  129  A    between atoms: _316  and  _318
REMARK  130  A    between atoms: _318  and  _319
REMARK  131  A    between atoms: _322  and  _324
REMARK  132  A    between atoms: _324  and  _325
REMARK  133  A    between atoms: _324  and  _327
REMARK  134  A    between atoms: _327  and  _328
REMARK  135  A    between atoms: _338  and  _340
REMARK  136  A    between atoms: _340  and  _341
REMARK  137  A    between atoms: _340  and  _343
REMARK  138  A    between atoms: _343  and  _344
REMARK  139  A    between atoms: _347  and  _348
REMARK  140  A    between atoms: _353  and  _355
REMARK  141  A    between atoms: _355  and  _356
REMARK  142  A    between atoms: _355  and  _358
REMARK  143  A    between atoms: _358  and  _359
REMARK  144  A    between atoms: _359  and  _360
REMARK  145  A    between atoms: _360  and  _361
REMARK  146  A    between atoms: _370  and  _372
REMARK  147  A    between atoms: _372  and  _373
REMARK  148  A    between atoms: _372  and  _375
REMARK  149  A    between atoms: _375  and  _376
REMARK  150  A    between atoms: _379  and  _381
REMARK  151  A    between atoms: _381  and  _382
REMARK  152  A    between atoms: _381  and  _384
REMARK  153  A    between atoms: _384  and  _385
REMARK  154  A    between atoms: _388  and  _390
REMARK  155  A    between atoms: _390  and  _391
REMARK  156  A    between atoms: _390  and  _393
REMARK  157  A    between atoms: _393  and  _394
REMARK  158  A    between atoms: _397  and  _399
REMARK  159  A    between atoms: _399  and  _400
REMARK  160  A    between atoms: _399  and  _402
REMARK  161  A    between atoms: _402  and  _403
REMARK  162  A    between atoms: _406  and  _408
REMARK  163  A    between atoms: _408  and  _409
REMARK  164  A    between atoms: _408  and  _411
REMARK  165  A    between atoms: _411  and  _412
REMARK  166  A    between atoms: _415  and  _417
REMARK  167  A    between atoms: _417  and  _418
REMARK  168  A    between atoms: _417  and  _420
REMARK  169  A    between atoms: _420  and  _421
REMARK  170  A    between atoms: _424  and  _426
REMARK  171  A    between atoms: _426  and  _427
REMARK  172  A    between atoms: _430  and  _432
REMARK  173  A    between atoms: _432  and  _433
REMARK  174  A    between atoms: _432  and  _435
REMARK  175  A    between atoms: _435  and  _436
REMARK  176  A    between atoms: _439  and  _441
REMARK  177  A    between atoms: _441  and  _442
REMARK  178  A    between atoms: _441  and  _444
REMARK  179  A    between atoms: _444  and  _445
REMARK  180  A    between atoms: _448  and  _450
REMARK  181  A    between atoms: _450  and  _451
REMARK  182  A    between atoms: _450  and  _453
REMARK  183  A    between atoms: _453  and  _454
REMARK  184  A    between atoms: _457  and  _459
REMARK  185  A    between atoms: _459  and  _460
REMARK  186  A    between atoms: _459  and  _462
REMARK  187  A    between atoms: _462  and  _463
REMARK  188  A    between atoms: _463  and  _464
REMARK  189  A    between atoms: _464  and  _465
REMARK  190  A    between atoms: _465  and  _466
REMARK  191  A    between atoms: _470  and  _472
REMARK  192  A    between atoms: _472  and  _473
REMARK  193  A    between atoms: _472  and  _475
REMARK  194  A    between atoms: _475  and  _476
REMARK  195  A    between atoms: _479  and  _481
REMARK  196  A    between atoms: _481  and  _482
REMARK  197  A    between atoms: _481  and  _484
REMARK  198  A    between atoms: _484  and  _485
REMARK  199  A    between atoms: _488  and  _490
REMARK  200  A    between atoms: _490  and  _491
REMARK  201  A    between atoms: _490  and  _493
REMARK  202  A    between atoms: _493  and  _494
REMARK  203  A    between atoms: _498  and  _499
REMARK  204  A    between atoms: _504  and  _506
REMARK  205  A    between atoms: _506  and  _507
REMARK  206  A    between atoms: _506  and  _509
REMARK  207  A    between atoms: _509  and  _510
REMARK  208  A    between atoms: _515  and  _517
REMARK  209  A    between atoms: _517  and  _518
REMARK  210  A    between atoms: _517  and  _520
REMARK  211  A    between atoms: _520  and  _521
REMARK  212  A    between atoms: _521  and  _522
REMARK  213  A    between atoms: _522  and  _523
REMARK  214  A    between atoms: _523  and  _524
REMARK  215  A    between atoms: _528  and  _530
REMARK  216  A    between atoms: _530  and  _531
REMARK  217  A    between atoms: _530  and  _533
REMARK  218  A    between atoms: _533  and  _534
REMARK  219  A    between atoms: _534  and  _535
REMARK  220  A    between atoms: _538  and  _540
REMARK  221  A    between atoms: _540  and  _541
REMARK  222  A    between atoms: _540  and  _543
REMARK  223  A    between atoms: _543  and  _544
REMARK  224  A    between atoms: _547  and  _549
REMARK  225  A    between atoms: _549  and  _550
REMARK  226  A    between atoms: _549  and  _552
REMARK  227  A    between atoms: _552  and  _553
REMARK  228  A    between atoms: _553  and  _554
REMARK  229  A    between atoms: _554  and  _555
REMARK  230  A    between atoms: _564  and  _566
REMARK  231  A    between atoms: _566  and  _567
REMARK  232  A    between atoms: _566  and  _569
REMARK  233  A    between atoms: _569  and  _570
REMARK  234  A    between atoms: _572  and  _574
REMARK  235  A    between atoms: _574  and  _575
REMARK  236  A    between atoms: _574  and  _577
REMARK  237  A    between atoms: _577  and  _578
REMARK  238  A    between atoms: _584  and  _586
REMARK  239  A    between atoms: _586  and  _587
REMARK  240  A    between atoms: _590  and  _592
REMARK  241  A    between atoms: _592  and  _593
REMARK  242  A    between atoms: _592  and  _595
REMARK  243  A    between atoms: _595  and  _596
REMARK  244  A    between atoms: _596  and  _597
REMARK  245  A    between atoms: _600  and  _602
REMARK  246  A    between atoms: _602  and  _603
REMARK  247  A    between atoms: _602  and  _605
REMARK  248  A    between atoms: _605  and  _606
REMARK                            x       y       z     vdW  Elec       q    Type
REMARK                         _______ _______ _______ _____ _____    ______ ____
ROOT
ATOM      1  O   HOH     1       0.482  27.845 -12.696  0.00  0.00    +0.000 OA
ENDROOT
TORSDOF 0
REMARK  Name = ../refined-set-2016/4pzv/4pzv_pocket.pdb
REMARK  248 active torsions:
REMARK  status: ('A' for Active; 'I' for Inactive)
REMARK    1  A    between atoms: _1  and  _3
REMARK    2  A    between atoms: _3  and  _4
REMARK    3  A    between atoms: _3  and  _6
REMARK    4  A    between atoms: _6  and  _7
REMARK    5  A    between atoms: _10  and  _12
REMARK    6  A    between atoms: _12  and  _13
REMARK    7  A    between atoms: _12  and  _15
REMARK    8  A    between atoms: _15  and  _16
REMARK    9  A    between atoms: _19  and  _21
REMARK   10  A    between atoms: _21  and  _22
REMARK   11  A    between atoms: _24  and  _26
REMARK   12  A    between atoms: _26  and  _27
REMARK   13  A    between atoms: _26  and  _29
REMARK   14  A    between atoms: _29  and  _30
REMARK   15  A    between atoms: _33  and  _35
REMARK   16  A    between atoms: _35  and  _36
REMARK   17  A    between atoms: _38  and  _40
REMARK   18  A    between atoms: _40  and  _41
REMARK   19  A    between atoms: _40  and  _43
REMARK   20  A    between atoms: _43  and  _44
REMARK   21  A    between atoms: _47  and  _49
REMARK   22  A    between atoms: _49  and  _50
REMARK   23  A    between atoms: _49  and  _52
REMARK   24  A    between atoms: _52  and  _53
REMARK   25  A    between atoms: _58  and  _60
REMARK   26  A    between atoms: _60  and  _61
REMARK   27  A    between atoms: _60  and  _63
REMARK   28  A    between atoms: _63  and  _64
REMARK   29  A    between atoms: _69  and  _70
REMARK   30  A    between atoms: _72  and  _74
REMARK   31  A    between atoms: _74  and  _75
REMARK   32  A    between atoms: _74  and  _77
REMARK   33  A    between atoms: _77  and  _78
REMARK   34  A    between atoms: _80  and  _82
REMARK   35  A    between atoms: _82  and  _83
REMARK   36  A    between atoms: _82  and  _85
REMARK   37  A    between atoms: _85  and  _86
REMARK   38  A    between atoms: _88  and  _90
REMARK   39  A    between atoms: _90  and  _91
REMARK   40  A    between atoms: _90  and  _93
REMARK   41  A    between atoms: _93  and  _94
REMARK   42  A    between atoms: _94  and  _95
REMARK   43  A    between atoms: _95  and  _96
REMARK   44  A    between atoms: _96  and  _97
REMARK   45  A    between atoms: _101  and  _103
REMARK   46  A    between atoms: _103  and  _104
REMARK   47  A    between atoms: _107  and  _109
REMARK   48  A    between atoms: _109  and  _110
REMARK   49  A    between atoms: _109  and  _112
REMARK   50  A    between atoms: _115  and  _117
REMARK   51  A    between atoms: _117  and  _118
REMARK   52  A    between atoms: _117  and  _120
REMARK   53  A    between atoms: _120  and  _121
REMARK   54  A    between atoms: _124  and  _126
REMARK   55  A    between atoms: _126  and  _127
REMARK   56  A    between atoms: _126  and  _129
REMARK   57  A    between atoms: _129  and  _130
REMARK   58  A    between atoms: _130  and  _131
REMARK   59  A    between atoms: _131  and  _132
REMARK   60  A    between atoms: _132  and  _133
REMARK   61  A    between atoms: _137  and  _139
REMARK   62  A    between atoms: _139  and  _140
REMARK   63  A    between atoms: _139  and  _142
REMARK   64  A    between atoms: _142  and  _143
REMARK   65  A    between atoms: _153  and  _155
REMARK   66  A    between atoms: _155  and  _156
REMARK   67  A    between atoms: _155  and  _158
REMARK   68  A    between atoms: _158  and  _159
REMARK   69  A    between atoms: _162  and  _164
REMARK   70  A    between atoms: _164  and  _165
REMARK   71  A    between atoms: _164  and  _167
REMARK   72  A    between atoms: _167  and  _168
REMARK   73  A    between atoms: _168  and  _169
REMARK   74  A    between atoms: _169  and  _170
REMARK   75  A    between atoms: _179  and  _181
REMARK   76  A    between atoms: _181  and  _182
REMARK   77  A    between atoms: _181  and  _184
REMARK   78  A    between atoms: _184  and  _185
REMARK   79  A    between atoms: _191  and  _193
REMARK   80  A    between atoms: _193  and  _194
REMARK   81  A    between atoms: _193  and  _196
REMARK   82  A    between atoms: _196  and  _197
REMARK   83  A    between atoms: _200  and  _202
REMARK   84  A    between atoms: _202  and  _203
REMARK   85  A    between atoms: _202  and  _205
REMARK   86  A    between atoms: _205  and  _206
REMARK   87  A    between atoms: _211  and  _213
REMARK   88  A    between atoms: _213  and  _214
REMARK   89  A    between atoms: _213  and  _216
REMARK   90  A    between atoms: _216  and  _217
REMARK   91  A    between atoms: _221  and  _222
REMARK   92  A    between atoms: _227  and  _229
REMARK   93  A    between atoms: _229  and  _230
REMARK   94  A    between atoms: _229  and  _232
REMARK   95  A    between atoms: _232  and  _233
REMARK   96  A    between atoms: _236  and  _238
REMARK   97  A    between atoms: _238  and  _239
REMARK   98  A    between atoms: _238  and  _241
REMARK   99  A    between atoms: _241  and  _242
REMARK  100  A    between atoms: _245  and  _247
REMARK  101  A    between atoms: _247  and  _248
REMARK  102  A    between atoms: _247  and  _250
REMARK  103  A    between atoms: _250  and  _251
REMARK  104  A    between atoms: _254  and  _256
REMARK  105  A    between atoms: _256  and  _257
REMARK  106  A    between atoms: _256  and  _259
REMARK  107  A    between atoms: _259  and  _260
REMARK  108  A    between atoms: _260  and  _261
REMARK  109  A    between atoms: _261  and  _262
REMARK  110  A    between atoms: _262  and  _263
REMARK  111  A    between atoms: _267  and  _269
REMARK  112  A    between atoms: _269  and  _270
REMARK  113  A    between atoms: _269  and  _272
REMARK  114  A    between atoms: _272  and  _273
REMARK  115  A    between atoms: _273  and  _274
REMARK  116  A    between atoms: _277  and  _279
REMARK  117  A    between atoms: _279  and  _280
REMARK  118  A    between atoms: _279  and  _282
REMARK  119  A    between atoms: _282  and  _283
REMARK  120  A    between atoms: _283  and  _284
REMARK  121  A    between atoms: _284  and  _285
REMARK  122  A    between atoms: _294  and  _296
REMARK  123  A    between atoms: _296  and  _297
REMARK  124  A    between atoms: _296  and  _299
REMARK  125  A    between atoms: _299  and  _300
REMARK  126  A    between atoms: _303  and  _305
REMARK  127  A    between atoms: _305  and  _306
REMARK  128  A    between atoms: _310  and  _311
REMARK  129  A    between atoms: _316  and  _318
REMARK  130  A    between atoms: _318  and  _319
REMARK  131  A    between atoms: _322  and  _324
REMARK  132  A    between atoms: _324  and  _325
REMARK  133  A    between atoms: _324  and  _327
REMARK  134  A    between atoms: _327  and  _328
REMARK  135  A    between atoms: _338  and  _340
REMARK  136  A    between atoms: _340  and  _341
REMARK  137  A    between atoms: _340  and  _343
REMARK  138  A    between atoms: _343  and  _344
REMARK  139  A    between atoms: _347  and  _348
REMARK  140  A    between atoms: _353  and  _355
REMARK  141  A    between atoms: _355  and  _356
REMARK  142  A    between atoms: _355  and  _358
REMARK  143  A    between atoms: _358  and  _359
REMARK  144  A    between atoms: _359  and  _360
REMARK  145  A    between atoms: _360  and  _361
REMARK  146  A    between atoms: _370  and  _372
REMARK  147  A    between atoms: _372  and  _373
REMARK  148  A    between atoms: _372  and  _375
REMARK  149  A    between atoms: _375  and  _376
REMARK  150  A    between atoms: _379  and  _381
REMARK  151  A    between atoms: _381  and  _382
REMARK  152  A    between atoms: _381  and  _384
REMARK  153  A    between atoms: _384  and  _385
REMARK  154  A    between atoms: _388  and  _390
REMARK  155  A    between atoms: _390  and  _391
REMARK  156  A    between atoms: _390  and  _393
REMARK  157  A    between atoms: _393  and  _394
REMARK  158  A    between atoms: _397  and  _399
REMARK  159  A    between atoms: _399  and  _400
REMARK  160  A    between atoms: _399  and  _402
REMARK  161  A    between atoms: _402  and  _403
REMARK  162  A    between atoms: _406  and  _408
REMARK  163  A    between atoms: _408  and  _409
REMARK  164  A    between atoms: _408  and  _411
REMARK  165  A    between atoms: _411  and  _412
REMARK  166  A    between atoms: _415  and  _417
REMARK  167  A    between atoms: _417  and  _418
REMARK  168  A    between atoms: _417  and  _420
REMARK  169  A    between atoms: _420  and  _421
REMARK  170  A    between atoms: _424  and  _426
REMARK  171  A    between atoms: _426  and  _427
REMARK  172  A    between atoms: _430  and  _432
REMARK  173  A    between atoms: _432  and  _433
REMARK  174  A    between atoms: _432  and  _435
REMARK  175  A    between atoms: _435  and  _436
REMARK  176  A    between atoms: _439  and  _441
REMARK  177  A    between atoms: _441  and  _442
REMARK  178  A    between atoms: _441  and  _444
REMARK  179  A    between atoms: _444  and  _445
REMARK  180  A    between atoms: _448  and  _450
REMARK  181  A    between atoms: _450  and  _451
REMARK  182  A    between atoms: _450  and  _453
REMARK  183  A    between atoms: _453  and  _454
REMARK  184  A    between atoms: _457  and  _459
REMARK  185  A    between atoms: _459  and  _460
REMARK  186  A    between atoms: _459  and  _462
REMARK  187  A    between atoms: _462  and  _463
REMARK  188  A    between atoms: _463  and  _464
REMARK  189  A    between atoms: _464  and  _465
REMARK  190  A    between atoms: _465  and  _466
REMARK  191  A    between atoms: _470  and  _472
REMARK  192  A    between atoms: _472  and  _473
REMARK  193  A    between atoms: _472  and  _475
REMARK  194  A    between atoms: _475  and  _476
REMARK  195  A    between atoms: _479  and  _481
REMARK  196  A    between atoms: _481  and  _482
REMARK  197  A    between atoms: _481  and  _484
REMARK  198  A    between atoms: _484  and  _485
REMARK  199  A    between atoms: _488  and  _490
REMARK  200  A    between atoms: _490  and  _491
REMARK  201  A    between atoms: _490  and  _493
REMARK  202  A    between atoms: _493  and  _494
REMARK  203  A    between atoms: _498  and  _499
REMARK  204  A    between atoms: _504  and  _506
REMARK  205  A    between atoms: _506  and  _507
REMARK  206  A    between atoms: _506  and  _509
REMARK  207  A    between atoms: _509  and  _510
REMARK  208  A    between atoms: _515  and  _517
REMARK  209  A    between atoms: _517  and  _518
REMARK  210  A    between atoms: _517  and  _520
REMARK  211  A    between atoms: _520  and  _521
REMARK  212  A    between atoms: _521  and  _522
REMARK  213  A    between atoms: _522  and  _523
REMARK  214  A    between atoms: _523  and  _524
REMARK  215  A    between atoms: _528  and  _530
REMARK  216  A    between atoms: _530  and  _531
REMARK  217  A    between atoms: _530  and  _533
REMARK  218  A    between atoms: _533  and  _534
REMARK  219  A    between atoms: _534  and  _535
REMARK  220  A    between atoms: _538  and  _540
REMARK  221  A    between atoms: _540  and  _541
REMARK  222  A    between atoms: _540  and  _543
REMARK  223  A    between atoms: _543  and  _544
REMARK  224  A    between atoms: _547  and  _549
REMARK  225  A    between atoms: _549  and  _550
REMARK  226  A    between atoms: _549  and  _552
REMARK  227  A    between atoms: _552  and  _553
REMARK  228  A    between atoms: _553  and  _554
REMARK  229  A    between atoms: _554  and  _555
REMARK  230  A    between atoms: _564  and  _566
REMARK  231  A    between atoms: _566  and  _567
REMARK  232  A    between atoms: _566  and  _569
REMARK  233  A    between atoms: _569  and  _570
REMARK  234  A    between atoms: _572  and  _574
REMARK  235  A    between atoms: _574  and  _575
REMARK  236  A    between atoms: _574  and  _577
REMARK  237  A    between atoms: _577  and  _578
REMARK  238  A    between atoms: _584  and  _586
REMARK  239  A    between atoms: _586  and  _587
REMARK  240  A    between atoms: _590  and  _592
REMARK  241  A    between atoms: _592  and  _593
REMARK  242  A    between atoms: _592  and  _595
REMARK  243  A    between atoms: _595  and  _596
REMARK  244  A    between atoms: _596  and  _597
REMARK  245  A    between atoms: _600  and  _602
REMARK  246  A    between atoms: _602  and  _603
REMARK  247  A    between atoms: _602  and  _605
REMARK  248  A    between atoms: _605  and  _606
REMARK                            x       y       z     vdW  Elec       q    Type
REMARK                         _______ _______ _______ _____ _____    ______ ____
ROOT
ATOM      1  O   HOH     1       9.101  23.891 -15.979  0.00  0.00    +0.000 OA
ENDROOT
TORSDOF 0
REMARK  Name = ../refined-set-2016/4pzv/4pzv_pocket.pdb
REMARK  248 active torsions:
REMARK  status: ('A' for Active; 'I' for Inactive)
REMARK    1  A    between atoms: _1  and  _3
REMARK    2  A    between atoms: _3  and  _4
REMARK    3  A    between atoms: _3  and  _6
REMARK    4  A    between atoms: _6  and  _7
REMARK    5  A    between atoms: _10  and  _12
REMARK    6  A    between atoms: _12  and  _13
REMARK    7  A    between atoms: _12  and  _15
REMARK    8  A    between atoms: _15  and  _16
REMARK    9  A    between atoms: _19  and  _21
REMARK   10  A    between atoms: _21  and  _22
REMARK   11  A    between atoms: _24  and  _26
REMARK   12  A    between atoms: _26  and  _27
REMARK   13  A    between atoms: _26  and  _29
REMARK   14  A    between atoms: _29  and  _30
REMARK   15  A    between atoms: _33  and  _35
REMARK   16  A    between atoms: _35  and  _36
REMARK   17  A    between atoms: _38  and  _40
REMARK   18  A    between atoms: _40  and  _41
REMARK   19  A    between atoms: _40  and  _43
REMARK   20  A    between atoms: _43  and  _44
REMARK   21  A    between atoms: _47  and  _49
REMARK   22  A    between atoms: _49  and  _50
REMARK   23  A    between atoms: _49  and  _52
REMARK   24  A    between atoms: _52  and  _53
REMARK   25  A    between atoms: _58  and  _60
REMARK   26  A    between atoms: _60  and  _61
REMARK   27  A    between atoms: _60  and  _63
REMARK   28  A    between atoms: _63  and  _64
REMARK   29  A    between atoms: _69  and  _70
REMARK   30  A    between atoms: _72  and  _74
REMARK   31  A    between atoms: _74  and  _75
REMARK   32  A    between atoms: _74  and  _77
REMARK   33  A    between atoms: _77  and  _78
REMARK   34  A    between atoms: _80  and  _82
REMARK   35  A    between atoms: _82  and  _83
REMARK   36  A    between atoms: _82  and  _85
REMARK   37  A    between atoms: _85  and  _86
REMARK   38  A    between atoms: _88  and  _90
REMARK   39  A    between atoms: _90  and  _91
REMARK   40  A    between atoms: _90  and  _93
REMARK   41  A    between atoms: _93  and  _94
REMARK   42  A    between atoms: _94  and  _95
REMARK   43  A    between atoms: _95  and  _96
REMARK   44  A    between atoms: _96  and  _97
REMARK   45  A    between atoms: _101  and  _103
REMARK   46  A    between atoms: _103  and  _104
REMARK   47  A    between atoms: _107  and  _109
REMARK   48  A    between atoms: _109  and  _110
REMARK   49  A    between atoms: _109  and  _112
REMARK   50  A    between atoms: _115  and  _117
REMARK   51  A    between atoms: _117  and  _118
REMARK   52  A    between atoms: _117  and  _120
REMARK   53  A    between atoms: _120  and  _121
REMARK   54  A    between atoms: _124  and  _126
REMARK   55  A    between atoms: _126  and  _127
REMARK   56  A    between atoms: _126  and  _129
REMARK   57  A    between atoms: _129  and  _130
REMARK   58  A    between atoms: _130  and  _131
REMARK   59  A    between atoms: _131  and  _132
REMARK   60  A    between atoms: _132  and  _133
REMARK   61  A    between atoms: _137  and  _139
REMARK   62  A    between atoms: _139  and  _140
REMARK   63  A    between atoms: _139  and  _142
REMARK   64  A    between atoms: _142  and  _143
REMARK   65  A    between atoms: _153  and  _155
REMARK   66  A    between atoms: _155  and  _156
REMARK   67  A    between atoms: _155  and  _158
REMARK   68  A    between atoms: _158  and  _159
REMARK   69  A    between atoms: _162  and  _164
REMARK   70  A    between atoms: _164  and  _165
REMARK   71  A    between atoms: _164  and  _167
REMARK   72  A    between atoms: _167  and  _168
REMARK   73  A    between atoms: _168  and  _169
REMARK   74  A    between atoms: _169  and  _170
REMARK   75  A    between atoms: _179  and  _181
REMARK   76  A    between atoms: _181  and  _182
REMARK   77  A    between atoms: _181  and  _184
REMARK   78  A    between atoms: _184  and  _185
REMARK   79  A    between atoms: _191  and  _193
REMARK   80  A    between atoms: _193  and  _194
REMARK   81  A    between atoms: _193  and  _196
REMARK   82  A    between atoms: _196  and  _197
REMARK   83  A    between atoms: _200  and  _202
REMARK   84  A    between atoms: _202  and  _203
REMARK   85  A    between atoms: _202  and  _205
REMARK   86  A    between atoms: _205  and  _206
REMARK   87  A    between atoms: _211  and  _213
REMARK   88  A    between atoms: _213  and  _214
REMARK   89  A    between atoms: _213  and  _216
REMARK   90  A    between atoms: _216  and  _217
REMARK   91  A    between atoms: _221  and  _222
REMARK   92  A    between atoms: _227  and  _229
REMARK   93  A    between atoms: _229  and  _230
REMARK   94  A    between atoms: _229  and  _232
REMARK   95  A    between atoms: _232  and  _233
REMARK   96  A    between atoms: _236  and  _238
REMARK   97  A    between atoms: _238  and  _239
REMARK   98  A    between atoms: _238  and  _241
REMARK   99  A    between atoms: _241  and  _242
REMARK  100  A    between atoms: _245  and  _247
REMARK  101  A    between atoms: _247  and  _248
REMARK  102  A    between atoms: _247  and  _250
REMARK  103  A    between atoms: _250  and  _251
REMARK  104  A    between atoms: _254  and  _256
REMARK  105  A    between atoms: _256  and  _257
REMARK  106  A    between atoms: _256  and  _259
REMARK  107  A    between atoms: _259  and  _260
REMARK  108  A    between atoms: _260  and  _261
REMARK  109  A    between atoms: _261  and  _262
REMARK  110  A    between atoms: _262  and  _263
REMARK  111  A    between atoms: _267  and  _269
REMARK  112  A    between atoms: _269  and  _270
REMARK  113  A    between atoms: _269  and  _272
REMARK  114  A    between atoms: _272  and  _273
REMARK  115  A    between atoms: _273  and  _274
REMARK  116  A    between atoms: _277  and  _279
REMARK  117  A    between atoms: _279  and  _280
REMARK  118  A    between atoms: _279  and  _282
REMARK  119  A    between atoms: _282  and  _283
REMARK  120  A    between atoms: _283  and  _284
REMARK  121  A    between atoms: _284  and  _285
REMARK  122  A    between atoms: _294  and  _296
REMARK  123  A    between atoms: _296  and  _297
REMARK  124  A    between atoms: _296  and  _299
REMARK  125  A    between atoms: _299  and  _300
REMARK  126  A    between atoms: _303  and  _305
REMARK  127  A    between atoms: _305  and  _306
REMARK  128  A    between atoms: _310  and  _311
REMARK  129  A    between atoms: _316  and  _318
REMARK  130  A    between atoms: _318  and  _319
REMARK  131  A    between atoms: _322  and  _324
REMARK  132  A    between atoms: _324  and  _325
REMARK  133  A    between atoms: _324  and  _327
REMARK  134  A    between atoms: _327  and  _328
REMARK  135  A    between atoms: _338  and  _340
REMARK  136  A    between atoms: _340  and  _341
REMARK  137  A    between atoms: _340  and  _343
REMARK  138  A    between atoms: _343  and  _344
REMARK  139  A    between atoms: _347  and  _348
REMARK  140  A    between atoms: _353  and  _355
REMARK  141  A    between atoms: _355  and  _356
REMARK  142  A    between atoms: _355  and  _358
REMARK  143  A    between atoms: _358  and  _359
REMARK  144  A    between atoms: _359  and  _360
REMARK  145  A    between atoms: _360  and  _361
REMARK  146  A    between atoms: _370  and  _372
REMARK  147  A    between atoms: _372  and  _373
REMARK  148  A    between atoms: _372  and  _375
REMARK  149  A    between atoms: _375  and  _376
REMARK  150  A    between atoms: _379  and  _381
REMARK  151  A    between atoms: _381  and  _382
REMARK  152  A    between atoms: _381  and  _384
REMARK  153  A    between atoms: _384  and  _385
REMARK  154  A    between atoms: _388  and  _390
REMARK  155  A    between atoms: _390  and  _391
REMARK  156  A    between atoms: _390  and  _393
REMARK  157  A    between atoms: _393  and  _394
REMARK  158  A    between atoms: _397  and  _399
REMARK  159  A    between atoms: _399  and  _400
REMARK  160  A    between atoms: _399  and  _402
REMARK  161  A    between atoms: _402  and  _403
REMARK  162  A    between atoms: _406  and  _408
REMARK  163  A    between atoms: _408  and  _409
REMARK  164  A    between atoms: _408  and  _411
REMARK  165  A    between atoms: _411  and  _412
REMARK  166  A    between atoms: _415  and  _417
REMARK  167  A    between atoms: _417  and  _418
REMARK  168  A    between atoms: _417  and  _420
REMARK  169  A    between atoms: _420  and  _421
REMARK  170  A    between atoms: _424  and  _426
REMARK  171  A    between atoms: _426  and  _427
REMARK  172  A    between atoms: _430  and  _432
REMARK  173  A    between atoms: _432  and  _433
REMARK  174  A    between atoms: _432  and  _435
REMARK  175  A    between atoms: _435  and  _436
REMARK  176  A    between atoms: _439  and  _441
REMARK  177  A    between atoms: _441  and  _442
REMARK  178  A    between atoms: _441  and  _444
REMARK  179  A    between atoms: _444  and  _445
REMARK  180  A    between atoms: _448  and  _450
REMARK  181  A    between atoms: _450  and  _451
REMARK  182  A    between atoms: _450  and  _453
REMARK  183  A    between atoms: _453  and  _454
REMARK  184  A    between atoms: _457  and  _459
REMARK  185  A    between atoms: _459  and  _460
REMARK  186  A    between atoms: _459  and  _462
REMARK  187  A    between atoms: _462  and  _463
REMARK  188  A    between atoms: _463  and  _464
REMARK  189  A    between atoms: _464  and  _465
REMARK  190  A    between atoms: _465  and  _466
REMARK  191  A    between atoms: _470  and  _472
REMARK  192  A    between atoms: _472  and  _473
REMARK  193  A    between atoms: _472  and  _475
REMARK  194  A    between atoms: _475  and  _476
REMARK  195  A    between atoms: _479  and  _481
REMARK  196  A    between atoms: _481  and  _482
REMARK  197  A    between atoms: _481  and  _484
REMARK  198  A    between atoms: _484  and  _485
REMARK  199  A    between atoms: _488  and  _490
REMARK  200  A    between atoms: _490  and  _491
REMARK  201  A    between atoms: _490  and  _493
REMARK  202  A    between atoms: _493  and  _494
REMARK  203  A    between atoms: _498  and  _499
REMARK  204  A    between atoms: _504  and  _506
REMARK  205  A    between atoms: _506  and  _507
REMARK  206  A    between atoms: _506  and  _509
REMARK  207  A    between atoms: _509  and  _510
REMARK  208  A    between atoms: _515  and  _517
REMARK  209  A    between atoms: _517  and  _518
REMARK  210  A    between atoms: _517  and  _520
REMARK  211  A    between atoms: _520  and  _521
REMARK  212  A    between atoms: _521  and  _522
REMARK  213  A    between atoms: _522  and  _523
REMARK  214  A    between atoms: _523  and  _524
REMARK  215  A    between atoms: _528  and  _530
REMARK  216  A    between atoms: _530  and  _531
REMARK  217  A    between atoms: _530  and  _533
REMARK  218  A    between atoms: _533  and  _534
REMARK  219  A    between atoms: _534  and  _535
REMARK  220  A    between atoms: _538  and  _540
REMARK  221  A    between atoms: _540  and  _541
REMARK  222  A    between atoms: _540  and  _543
REMARK  223  A    between atoms: _543  and  _544
REMARK  224  A    between atoms: _547  and  _549
REMARK  225  A    between atoms: _549  and  _550
REMARK  226  A    between atoms: _549  and  _552
REMARK  227  A    between atoms: _552  and  _553
REMARK  228  A    between atoms: _553  and  _554
REMARK  229  A    between atoms: _554  and  _555
REMARK  230  A    between atoms: _564  and  _566
REMARK  231  A    between atoms: _566  and  _567
REMARK  232  A    between atoms: _566  and  _569
REMARK  233  A    between atoms: _569  and  _570
REMARK  234  A    between atoms: _572  and  _574
REMARK  235  A    between atoms: _574  and  _575
REMARK  236  A    between atoms: _574  and  _577
REMARK  237  A    between atoms: _577  and  _578
REMARK  238  A    between atoms: _584  and  _586
REMARK  239  A    between atoms: _586  and  _587
REMARK  240  A    between atoms: _590  and  _592
REMARK  241  A    between atoms: _592  and  _593
REMARK  242  A    between atoms: _592  and  _595
REMARK  243  A    between atoms: _595  and  _596
REMARK  244  A    between atoms: _596  and  _597
REMARK  245  A    between atoms: _600  and  _602
REMARK  246  A    between atoms: _602  and  _603
REMARK  247  A    between atoms: _602  and  _605
REMARK  248  A    between atoms: _605  and  _606
REMARK                            x       y       z     vdW  Elec       q    Type
REMARK                         _______ _______ _______ _____ _____    ______ ____
ROOT
ATOM      1  O   HOH     1      16.456  19.763  -7.840  0.00  0.00    +0.000 OA
ENDROOT
TORSDOF 0
REMARK  Name = ../refined-set-2016/4pzv/4pzv_pocket.pdb
REMARK  248 active torsions:
REMARK  status: ('A' for Active; 'I' for Inactive)
REMARK    1  A    between atoms: _1  and  _3
REMARK    2  A    between atoms: _3  and  _4
REMARK    3  A    between atoms: _3  and  _6
REMARK    4  A    between atoms: _6  and  _7
REMARK    5  A    between atoms: _10  and  _12
REMARK    6  A    between atoms: _12  and  _13
REMARK    7  A    between atoms: _12  and  _15
REMARK    8  A    between atoms: _15  and  _16
REMARK    9  A    between atoms: _19  and  _21
REMARK   10  A    between atoms: _21  and  _22
REMARK   11  A    between atoms: _24  and  _26
REMARK   12  A    between atoms: _26  and  _27
REMARK   13  A    between atoms: _26  and  _29
REMARK   14  A    between atoms: _29  and  _30
REMARK   15  A    between atoms: _33  and  _35
REMARK   16  A    between atoms: _35  and  _36
REMARK   17  A    between atoms: _38  and  _40
REMARK   18  A    between atoms: _40  and  _41
REMARK   19  A    between atoms: _40  and  _43
REMARK   20  A    between atoms: _43  and  _44
REMARK   21  A    between atoms: _47  and  _49
REMARK   22  A    between atoms: _49  and  _50
REMARK   23  A    between atoms: _49  and  _52
REMARK   24  A    between atoms: _52  and  _53
REMARK   25  A    between atoms: _58  and  _60
REMARK   26  A    between atoms: _60  and  _61
REMARK   27  A    between atoms: _60  and  _63
REMARK   28  A    between atoms: _63  and  _64
REMARK   29  A    between atoms: _69  and  _70
REMARK   30  A    between atoms: _72  and  _74
REMARK   31  A    between atoms: _74  and  _75
REMARK   32  A    between atoms: _74  and  _77
REMARK   33  A    between atoms: _77  and  _78
REMARK   34  A    between atoms: _80  and  _82
REMARK   35  A    between atoms: _82  and  _83
REMARK   36  A    between atoms: _82  and  _85
REMARK   37  A    between atoms: _85  and  _86
REMARK   38  A    between atoms: _88  and  _90
REMARK   39  A    between atoms: _90  and  _91
REMARK   40  A    between atoms: _90  and  _93
REMARK   41  A    between atoms: _93  and  _94
REMARK   42  A    between atoms: _94  and  _95
REMARK   43  A    between atoms: _95  and  _96
REMARK   44  A    between atoms: _96  and  _97
REMARK   45  A    between atoms: _101  and  _103
REMARK   46  A    between atoms: _103  and  _104
REMARK   47  A    between atoms: _107  and  _109
REMARK   48  A    between atoms: _109  and  _110
REMARK   49  A    between atoms: _109  and  _112
REMARK   50  A    between atoms: _115  and  _117
REMARK   51  A    between atoms: _117  and  _118
REMARK   52  A    between atoms: _117  and  _120
REMARK   53  A    between atoms: _120  and  _121
REMARK   54  A    between atoms: _124  and  _126
REMARK   55  A    between atoms: _126  and  _127
REMARK   56  A    between atoms: _126  and  _129
REMARK   57  A    between atoms: _129  and  _130
REMARK   58  A    between atoms: _130  and  _131
REMARK   59  A    between atoms: _131  and  _132
REMARK   60  A    between atoms: _132  and  _133
REMARK   61  A    between atoms: _137  and  _139
REMARK   62  A    between atoms: _139  and  _140
REMARK   63  A    between atoms: _139  and  _142
REMARK   64  A    between atoms: _142  and  _143
REMARK   65  A    between atoms: _153  and  _155
REMARK   66  A    between atoms: _155  and  _156
REMARK   67  A    between atoms: _155  and  _158
REMARK   68  A    between atoms: _158  and  _159
REMARK   69  A    between atoms: _162  and  _164
REMARK   70  A    between atoms: _164  and  _165
REMARK   71  A    between atoms: _164  and  _167
REMARK   72  A    between atoms: _167  and  _168
REMARK   73  A    between atoms: _168  and  _169
REMARK   74  A    between atoms: _169  and  _170
REMARK   75  A    between atoms: _179  and  _181
REMARK   76  A    between atoms: _181  and  _182
REMARK   77  A    between atoms: _181  and  _184
REMARK   78  A    between atoms: _184  and  _185
REMARK   79  A    between atoms: _191  and  _193
REMARK   80  A    between atoms: _193  and  _194
REMARK   81  A    between atoms: _193  and  _196
REMARK   82  A    between atoms: _196  and  _197
REMARK   83  A    between atoms: _200  and  _202
REMARK   84  A    between atoms: _202  and  _203
REMARK   85  A    between atoms: _202  and  _205
REMARK   86  A    between atoms: _205  and  _206
REMARK   87  A    between atoms: _211  and  _213
REMARK   88  A    between atoms: _213  and  _214
REMARK   89  A    between atoms: _213  and  _216
REMARK   90  A    between atoms: _216  and  _217
REMARK   91  A    between atoms: _221  and  _222
REMARK   92  A    between atoms: _227  and  _229
REMARK   93  A    between atoms: _229  and  _230
REMARK   94  A    between atoms: _229  and  _232
REMARK   95  A    between atoms: _232  and  _233
REMARK   96  A    between atoms: _236  and  _238
REMARK   97  A    between atoms: _238  and  _239
REMARK   98  A    between atoms: _238  and  _241
REMARK   99  A    between atoms: _241  and  _242
REMARK  100  A    between atoms: _245  and  _247
REMARK  101  A    between atoms: _247  and  _248
REMARK  102  A    between atoms: _247  and  _250
REMARK  103  A    between atoms: _250  and  _251
REMARK  104  A    between atoms: _254  and  _256
REMARK  105  A    between atoms: _256  and  _257
REMARK  106  A    between atoms: _256  and  _259
REMARK  107  A    between atoms: _259  and  _260
REMARK  108  A    between atoms: _260  and  _261
REMARK  109  A    between atoms: _261  and  _262
REMARK  110  A    between atoms: _262  and  _263
REMARK  111  A    between atoms: _267  and  _269
REMARK  112  A    between atoms: _269  and  _270
REMARK  113  A    between atoms: _269  and  _272
REMARK  114  A    between atoms: _272  and  _273
REMARK  115  A    between atoms: _273  and  _274
REMARK  116  A    between atoms: _277  and  _279
REMARK  117  A    between atoms: _279  and  _280
REMARK  118  A    between atoms: _279  and  _282
REMARK  119  A    between atoms: _282  and  _283
REMARK  120  A    between atoms: _283  and  _284
REMARK  121  A    between atoms: _284  and  _285
REMARK  122  A    between atoms: _294  and  _296
REMARK  123  A    between atoms: _296  and  _297
REMARK  124  A    between atoms: _296  and  _299
REMARK  125  A    between atoms: _299  and  _300
REMARK  126  A    between atoms: _303  and  _305
REMARK  127  A    between atoms: _305  and  _306
REMARK  128  A    between atoms: _310  and  _311
REMARK  129  A    between atoms: _316  and  _318
REMARK  130  A    between atoms: _318  and  _319
REMARK  131  A    between atoms: _322  and  _324
REMARK  132  A    between atoms: _324  and  _325
REMARK  133  A    between atoms: _324  and  _327
REMARK  134  A    between atoms: _327  and  _328
REMARK  135  A    between atoms: _338  and  _340
REMARK  136  A    between atoms: _340  and  _341
REMARK  137  A    between atoms: _340  and  _343
REMARK  138  A    between atoms: _343  and  _344
REMARK  139  A    between atoms: _347  and  _348
REMARK  140  A    between atoms: _353  and  _355
REMARK  141  A    between atoms: _355  and  _356
REMARK  142  A    between atoms: _355  and  _358
REMARK  143  A    between atoms: _358  and  _359
REMARK  144  A    between atoms: _359  and  _360
REMARK  145  A    between atoms: _360  and  _361
REMARK  146  A    between atoms: _370  and  _372
REMARK  147  A    between atoms: _372  and  _373
REMARK  148  A    between atoms: _372  and  _375
REMARK  149  A    between atoms: _375  and  _376
REMARK  150  A    between atoms: _379  and  _381
REMARK  151  A    between atoms: _381  and  _382
REMARK  152  A    between atoms: _381  and  _384
REMARK  153  A    between atoms: _384  and  _385
REMARK  154  A    between atoms: _388  and  _390
REMARK  155  A    between atoms: _390  and  _391
REMARK  156  A    between atoms: _390  and  _393
REMARK  157  A    between atoms: _393  and  _394
REMARK  158  A    between atoms: _397  and  _399
REMARK  159  A    between atoms: _399  and  _400
REMARK  160  A    between atoms: _399  and  _402
REMARK  161  A    between atoms: _402  and  _403
REMARK  162  A    between atoms: _406  and  _408
REMARK  163  A    between atoms: _408  and  _409
REMARK  164  A    between atoms: _408  and  _411
REMARK  165  A    between atoms: _411  and  _412
REMARK  166  A    between atoms: _415  and  _417
REMARK  167  A    between atoms: _417  and  _418
REMARK  168  A    between atoms: _417  and  _420
REMARK  169  A    between atoms: _420  and  _421
REMARK  170  A    between atoms: _424  and  _426
REMARK  171  A    between atoms: _426  and  _427
REMARK  172  A    between atoms: _430  and  _432
REMARK  173  A    between atoms: _432  and  _433
REMARK  174  A    between atoms: _432  and  _435
REMARK  175  A    between atoms: _435  and  _436
REMARK  176  A    between atoms: _439  and  _441
REMARK  177  A    between atoms: _441  and  _442
REMARK  178  A    between atoms: _441  and  _444
REMARK  179  A    between atoms: _444  and  _445
REMARK  180  A    between atoms: _448  and  _450
REMARK  181  A    between atoms: _450  and  _451
REMARK  182  A    between atoms: _450  and  _453
REMARK  183  A    between atoms: _453  and  _454
REMARK  184  A    between atoms: _457  and  _459
REMARK  185  A    between atoms: _459  and  _460
REMARK  186  A    between atoms: _459  and  _462
REMARK  187  A    between atoms: _462  and  _463
REMARK  188  A    between atoms: _463  and  _464
REMARK  189  A    between atoms: _464  and  _465
REMARK  190  A    between atoms: _465  and  _466
REMARK  191  A    between atoms: _470  and  _472
REMARK  192  A    between atoms: _472  and  _473
REMARK  193  A    between atoms: _472  and  _475
REMARK  194  A    between atoms: _475  and  _476
REMARK  195  A    between atoms: _479  and  _481
REMARK  196  A    between atoms: _481  and  _482
REMARK  197  A    between atoms: _481  and  _484
REMARK  198  A    between atoms: _484  and  _485
REMARK  199  A    between atoms: _488  and  _490
REMARK  200  A    between atoms: _490  and  _491
REMARK  201  A    between atoms: _490  and  _493
REMARK  202  A    between atoms: _493  and  _494
REMARK  203  A    between atoms: _498  and  _499
REMARK  204  A    between atoms: _504  and  _506
REMARK  205  A    between atoms: _506  and  _507
REMARK  206  A    between atoms: _506  and  _509
REMARK  207  A    between atoms: _509  and  _510
REMARK  208  A    between atoms: _515  and  _517
REMARK  209  A    between atoms: _517  and  _518
REMARK  210  A    between atoms: _517  and  _520
REMARK  211  A    between atoms: _520  and  _521
REMARK  212  A    between atoms: _521  and  _522
REMARK  213  A    between atoms: _522  and  _523
REMARK  214  A    between atoms: _523  and  _524
REMARK  215  A    between atoms: _528  and  _530
REMARK  216  A    between atoms: _530  and  _531
REMARK  217  A    between atoms: _530  and  _533
REMARK  218  A    between atoms: _533  and  _534
REMARK  219  A    between atoms: _534  and  _535
REMARK  220  A    between atoms: _538  and  _540
REMARK  221  A    between atoms: _540  and  _541
REMARK  222  A    between atoms: _540  and  _543
REMARK  223  A    between atoms: _543  and  _544
REMARK  224  A    between atoms: _547  and  _549
REMARK  225  A    between atoms: _549  and  _550
REMARK  226  A    between atoms: _549  and  _552
REMARK  227  A    between atoms: _552  and  _553
REMARK  228  A    between atoms: _553  and  _554
REMARK  229  A    between atoms: _554  and  _555
REMARK  230  A    between atoms: _564  and  _566
REMARK  231  A    between atoms: _566  and  _567
REMARK  232  A    between atoms: _566  and  _569
REMARK  233  A    between atoms: _569  and  _570
REMARK  234  A    between atoms: _572  and  _574
REMARK  235  A    between atoms: _574  and  _575
REMARK  236  A    between atoms: _574  and  _577
REMARK  237  A    between atoms: _577  and  _578
REMARK  238  A    between atoms: _584  and  _586
REMARK  239  A    between atoms: _586  and  _587
REMARK  240  A    between atoms: _590  and  _592
REMARK  241  A    between atoms: _592  and  _593
REMARK  242  A    between atoms: _592  and  _595
REMARK  243  A    between atoms: _595  and  _596
REMARK  244  A    between atoms: _596  and  _597
REMARK  245  A    between atoms: _600  and  _602
REMARK  246  A    between atoms: _602  and  _603
REMARK  247  A    between atoms: _602  and  _605
REMARK  248  A    between atoms: _605  and  _606
REMARK                            x       y       z     vdW  Elec       q    Type
REMARK                         _______ _______ _______ _____ _____    ______ ____
ROOT
ATOM      1  O   HOH     1       3.117  27.897 -14.076  0.00  0.00    +0.000 OA
ENDROOT
TORSDOF 0
REMARK  Name = ../refined-set-2016/4pzv/4pzv_pocket.pdb
REMARK  248 active torsions:
REMARK  status: ('A' for Active; 'I' for Inactive)
REMARK    1  A    between atoms: _1  and  _3
REMARK    2  A    between atoms: _3  and  _4
REMARK    3  A    between atoms: _3  and  _6
REMARK    4  A    between atoms: _6  and  _7
REMARK    5  A    between atoms: _10  and  _12
REMARK    6  A    between atoms: _12  and  _13
REMARK    7  A    between atoms: _12  and  _15
REMARK    8  A    between atoms: _15  and  _16
REMARK    9  A    between atoms: _19  and  _21
REMARK   10  A    between atoms: _21  and  _22
REMARK   11  A    between atoms: _24  and  _26
REMARK   12  A    between atoms: _26  and  _27
REMARK   13  A    between atoms: _26  and  _29
REMARK   14  A    between atoms: _29  and  _30
REMARK   15  A    between atoms: _33  and  _35
REMARK   16  A    between atoms: _35  and  _36
REMARK   17  A    between atoms: _38  and  _40
REMARK   18  A    between atoms: _40  and  _41
REMARK   19  A    between atoms: _40  and  _43
REMARK   20  A    between atoms: _43  and  _44
REMARK   21  A    between atoms: _47  and  _49
REMARK   22  A    between atoms: _49  and  _50
REMARK   23  A    between atoms: _49  and  _52
REMARK   24  A    between atoms: _52  and  _53
REMARK   25  A    between atoms: _58  and  _60
REMARK   26  A    between atoms: _60  and  _61
REMARK   27  A    between atoms: _60  and  _63
REMARK   28  A    between atoms: _63  and  _64
REMARK   29  A    between atoms: _69  and  _70
REMARK   30  A    between atoms: _72  and  _74
REMARK   31  A    between atoms: _74  and  _75
REMARK   32  A    between atoms: _74  and  _77
REMARK   33  A    between atoms: _77  and  _78
REMARK   34  A    between atoms: _80  and  _82
REMARK   35  A    between atoms: _82  and  _83
REMARK   36  A    between atoms: _82  and  _85
REMARK   37  A    between atoms: _85  and  _86
REMARK   38  A    between atoms: _88  and  _90
REMARK   39  A    between atoms: _90  and  _91
REMARK   40  A    between atoms: _90  and  _93
REMARK   41  A    between atoms: _93  and  _94
REMARK   42  A    between atoms: _94  and  _95
REMARK   43  A    between atoms: _95  and  _96
REMARK   44  A    between atoms: _96  and  _97
REMARK   45  A    between atoms: _101  and  _103
REMARK   46  A    between atoms: _103  and  _104
REMARK   47  A    between atoms: _107  and  _109
REMARK   48  A    between atoms: _109  and  _110
REMARK   49  A    between atoms: _109  and  _112
REMARK   50  A    between atoms: _115  and  _117
REMARK   51  A    between atoms: _117  and  _118
REMARK   52  A    between atoms: _117  and  _120
REMARK   53  A    between atoms: _120  and  _121
REMARK   54  A    between atoms: _124  and  _126
REMARK   55  A    between atoms: _126  and  _127
REMARK   56  A    between atoms: _126  and  _129
REMARK   57  A    between atoms: _129  and  _130
REMARK   58  A    between atoms: _130  and  _131
REMARK   59  A    between atoms: _131  and  _132
REMARK   60  A    between atoms: _132  and  _133
REMARK   61  A    between atoms: _137  and  _139
REMARK   62  A    between atoms: _139  and  _140
REMARK   63  A    between atoms: _139  and  _142
REMARK   64  A    between atoms: _142  and  _143
REMARK   65  A    between atoms: _153  and  _155
REMARK   66  A    between atoms: _155  and  _156
REMARK   67  A    between atoms: _155  and  _158
REMARK   68  A    between atoms: _158  and  _159
REMARK   69  A    between atoms: _162  and  _164
REMARK   70  A    between atoms: _164  and  _165
REMARK   71  A    between atoms: _164  and  _167
REMARK   72  A    between atoms: _167  and  _168
REMARK   73  A    between atoms: _168  and  _169
REMARK   74  A    between atoms: _169  and  _170
REMARK   75  A    between atoms: _179  and  _181
REMARK   76  A    between atoms: _181  and  _182
REMARK   77  A    between atoms: _181  and  _184
REMARK   78  A    between atoms: _184  and  _185
REMARK   79  A    between atoms: _191  and  _193
REMARK   80  A    between atoms: _193  and  _194
REMARK   81  A    between atoms: _193  and  _196
REMARK   82  A    between atoms: _196  and  _197
REMARK   83  A    between atoms: _200  and  _202
REMARK   84  A    between atoms: _202  and  _203
REMARK   85  A    between atoms: _202  and  _205
REMARK   86  A    between atoms: _205  and  _206
REMARK   87  A    between atoms: _211  and  _213
REMARK   88  A    between atoms: _213  and  _214
REMARK   89  A    between atoms: _213  and  _216
REMARK   90  A    between atoms: _216  and  _217
REMARK   91  A    between atoms: _221  and  _222
REMARK   92  A    between atoms: _227  and  _229
REMARK   93  A    between atoms: _229  and  _230
REMARK   94  A    between atoms: _229  and  _232
REMARK   95  A    between atoms: _232  and  _233
REMARK   96  A    between atoms: _236  and  _238
REMARK   97  A    between atoms: _238  and  _239
REMARK   98  A    between atoms: _238  and  _241
REMARK   99  A    between atoms: _241  and  _242
REMARK  100  A    between atoms: _245  and  _247
REMARK  101  A    between atoms: _247  and  _248
REMARK  102  A    between atoms: _247  and  _250
REMARK  103  A    between atoms: _250  and  _251
REMARK  104  A    between atoms: _254  and  _256
REMARK  105  A    between atoms: _256  and  _257
REMARK  106  A    between atoms: _256  and  _259
REMARK  107  A    between atoms: _259  and  _260
REMARK  108  A    between atoms: _260  and  _261
REMARK  109  A    between atoms: _261  and  _262
REMARK  110  A    between atoms: _262  and  _263
REMARK  111  A    between atoms: _267  and  _269
REMARK  112  A    between atoms: _269  and  _270
REMARK  113  A    between atoms: _269  and  _272
REMARK  114  A    between atoms: _272  and  _273
REMARK  115  A    between atoms: _273  and  _274
REMARK  116  A    between atoms: _277  and  _279
REMARK  117  A    between atoms: _279  and  _280
REMARK  118  A    between atoms: _279  and  _282
REMARK  119  A    between atoms: _282  and  _283
REMARK  120  A    between atoms: _283  and  _284
REMARK  121  A    between atoms: _284  and  _285
REMARK  122  A    between atoms: _294  and  _296
REMARK  123  A    between atoms: _296  and  _297
REMARK  124  A    between atoms: _296  and  _299
REMARK  125  A    between atoms: _299  and  _300
REMARK  126  A    between atoms: _303  and  _305
REMARK  127  A    between atoms: _305  and  _306
REMARK  128  A    between atoms: _310  and  _311
REMARK  129  A    between atoms: _316  and  _318
REMARK  130  A    between atoms: _318  and  _319
REMARK  131  A    between atoms: _322  and  _324
REMARK  132  A    between atoms: _324  and  _325
REMARK  133  A    between atoms: _324  and  _327
REMARK  134  A    between atoms: _327  and  _328
REMARK  135  A    between atoms: _338  and  _340
REMARK  136  A    between atoms: _340  and  _341
REMARK  137  A    between atoms: _340  and  _343
REMARK  138  A    between atoms: _343  and  _344
REMARK  139  A    between atoms: _347  and  _348
REMARK  140  A    between atoms: _353  and  _355
REMARK  141  A    between atoms: _355  and  _356
REMARK  142  A    between atoms: _355  and  _358
REMARK  143  A    between atoms: _358  and  _359
REMARK  144  A    between atoms: _359  and  _360
REMARK  145  A    between atoms: _360  and  _361
REMARK  146  A    between atoms: _370  and  _372
REMARK  147  A    between atoms: _372  and  _373
REMARK  148  A    between atoms: _372  and  _375
REMARK  149  A    between atoms: _375  and  _376
REMARK  150  A    between atoms: _379  and  _381
REMARK  151  A    between atoms: _381  and  _382
REMARK  152  A    between atoms: _381  and  _384
REMARK  153  A    between atoms: _384  and  _385
REMARK  154  A    between atoms: _388  and  _390
REMARK  155  A    between atoms: _390  and  _391
REMARK  156  A    between atoms: _390  and  _393
REMARK  157  A    between atoms: _393  and  _394
REMARK  158  A    between atoms: _397  and  _399
REMARK  159  A    between atoms: _399  and  _400
REMARK  160  A    between atoms: _399  and  _402
REMARK  161  A    between atoms: _402  and  _403
REMARK  162  A    between atoms: _406  and  _408
REMARK  163  A    between atoms: _408  and  _409
REMARK  164  A    between atoms: _408  and  _411
REMARK  165  A    between atoms: _411  and  _412
REMARK  166  A    between atoms: _415  and  _417
REMARK  167  A    between atoms: _417  and  _418
REMARK  168  A    between atoms: _417  and  _420
REMARK  169  A    between atoms: _420  and  _421
REMARK  170  A    between atoms: _424  and  _426
REMARK  171  A    between atoms: _426  and  _427
REMARK  172  A    between atoms: _430  and  _432
REMARK  173  A    between atoms: _432  and  _433
REMARK  174  A    between atoms: _432  and  _435
REMARK  175  A    between atoms: _435  and  _436
REMARK  176  A    between atoms: _439  and  _441
REMARK  177  A    between atoms: _441  and  _442
REMARK  178  A    between atoms: _441  and  _444
REMARK  179  A    between atoms: _444  and  _445
REMARK  180  A    between atoms: _448  and  _450
REMARK  181  A    between atoms: _450  and  _451
REMARK  182  A    between atoms: _450  and  _453
REMARK  183  A    between atoms: _453  and  _454
REMARK  184  A    between atoms: _457  and  _459
REMARK  185  A    between atoms: _459  and  _460
REMARK  186  A    between atoms: _459  and  _462
REMARK  187  A    between atoms: _462  and  _463
REMARK  188  A    between atoms: _463  and  _464
REMARK  189  A    between atoms: _464  and  _465
REMARK  190  A    between atoms: _465  and  _466
REMARK  191  A    between atoms: _470  and  _472
REMARK  192  A    between atoms: _472  and  _473
REMARK  193  A    between atoms: _472  and  _475
REMARK  194  A    between atoms: _475  and  _476
REMARK  195  A    between atoms: _479  and  _481
REMARK  196  A    between atoms: _481  and  _482
REMARK  197  A    between atoms: _481  and  _484
REMARK  198  A    between atoms: _484  and  _485
REMARK  199  A    between atoms: _488  and  _490
REMARK  200  A    between atoms: _490  and  _491
REMARK  201  A    between atoms: _490  and  _493
REMARK  202  A    between atoms: _493  and  _494
REMARK  203  A    between atoms: _498  and  _499
REMARK  204  A    between atoms: _504  and  _506
REMARK  205  A    between atoms: _506  and  _507
REMARK  206  A    between atoms: _506  and  _509
REMARK  207  A    between atoms: _509  and  _510
REMARK  208  A    between atoms: _515  and  _517
REMARK  209  A    between atoms: _517  and  _518
REMARK  210  A    between atoms: _517  and  _520
REMARK  211  A    between atoms: _520  and  _521
REMARK  212  A    between atoms: _521  and  _522
REMARK  213  A    between atoms: _522  and  _523
REMARK  214  A    between atoms: _523  and  _524
REMARK  215  A    between atoms: _528  and  _530
REMARK  216  A    between atoms: _530  and  _531
REMARK  217  A    between atoms: _530  and  _533
REMARK  218  A    between atoms: _533  and  _534
REMARK  219  A    between atoms: _534  and  _535
REMARK  220  A    between atoms: _538  and  _540
REMARK  221  A    between atoms: _540  and  _541
REMARK  222  A    between atoms: _540  and  _543
REMARK  223  A    between atoms: _543  and  _544
REMARK  224  A    between atoms: _547  and  _549
REMARK  225  A    between atoms: _549  and  _550
REMARK  226  A    between atoms: _549  and  _552
REMARK  227  A    between atoms: _552  and  _553
REMARK  228  A    between atoms: _553  and  _554
REMARK  229  A    between atoms: _554  and  _555
REMARK  230  A    between atoms: _564  and  _566
REMARK  231  A    between atoms: _566  and  _567
REMARK  232  A    between atoms: _566  and  _569
REMARK  233  A    between atoms: _569  and  _570
REMARK  234  A    between atoms: _572  and  _574
REMARK  235  A    between atoms: _574  and  _575
REMARK  236  A    between atoms: _574  and  _577
REMARK  237  A    between atoms: _577  and  _578
REMARK  238  A    between atoms: _584  and  _586
REMARK  239  A    between atoms: _586  and  _587
REMARK  240  A    between atoms: _590  and  _592
REMARK  241  A    between atoms: _592  and  _593
REMARK  242  A    between atoms: _592  and  _595
REMARK  243  A    between atoms: _595  and  _596
REMARK  244  A    between atoms: _596  and  _597
REMARK  245  A    between atoms: _600  and  _602
REMARK  246  A    between atoms: _602  and  _603
REMARK  247  A    between atoms: _602  and  _605
REMARK  248  A    between atoms: _605  and  _606
REMARK                            x       y       z     vdW  Elec       q    Type
REMARK                         _______ _______ _______ _____ _____    ______ ____
ROOT
ATOM      1  O   HOH     1       4.206  24.193 -11.836  0.00  0.00    +0.000 OA
ENDROOT
TORSDOF 0
REMARK  Name = ../refined-set-2016/4pzv/4pzv_pocket.pdb
REMARK  248 active torsions:
REMARK  status: ('A' for Active; 'I' for Inactive)
REMARK    1  A    between atoms: _1  and  _3
REMARK    2  A    between atoms: _3  and  _4
REMARK    3  A    between atoms: _3  and  _6
REMARK    4  A    between atoms: _6  and  _7
REMARK    5  A    between atoms: _10  and  _12
REMARK    6  A    between atoms: _12  and  _13
REMARK    7  A    between atoms: _12  and  _15
REMARK    8  A    between atoms: _15  and  _16
REMARK    9  A    between atoms: _19  and  _21
REMARK   10  A    between atoms: _21  and  _22
REMARK   11  A    between atoms: _24  and  _26
REMARK   12  A    between atoms: _26  and  _27
REMARK   13  A    between atoms: _26  and  _29
REMARK   14  A    between atoms: _29  and  _30
REMARK   15  A    between atoms: _33  and  _35
REMARK   16  A    between atoms: _35  and  _36
REMARK   17  A    between atoms: _38  and  _40
REMARK   18  A    between atoms: _40  and  _41
REMARK   19  A    between atoms: _40  and  _43
REMARK   20  A    between atoms: _43  and  _44
REMARK   21  A    between atoms: _47  and  _49
REMARK   22  A    between atoms: _49  and  _50
REMARK   23  A    between atoms: _49  and  _52
REMARK   24  A    between atoms: _52  and  _53
REMARK   25  A    between atoms: _58  and  _60
REMARK   26  A    between atoms: _60  and  _61
REMARK   27  A    between atoms: _60  and  _63
REMARK   28  A    between atoms: _63  and  _64
REMARK   29  A    between atoms: _69  and  _70
REMARK   30  A    between atoms: _72  and  _74
REMARK   31  A    between atoms: _74  and  _75
REMARK   32  A    between atoms: _74  and  _77
REMARK   33  A    between atoms: _77  and  _78
REMARK   34  A    between atoms: _80  and  _82
REMARK   35  A    between atoms: _82  and  _83
REMARK   36  A    between atoms: _82  and  _85
REMARK   37  A    between atoms: _85  and  _86
REMARK   38  A    between atoms: _88  and  _90
REMARK   39  A    between atoms: _90  and  _91
REMARK   40  A    between atoms: _90  and  _93
REMARK   41  A    between atoms: _93  and  _94
REMARK   42  A    between atoms: _94  and  _95
REMARK   43  A    between atoms: _95  and  _96
REMARK   44  A    between atoms: _96  and  _97
REMARK   45  A    between atoms: _101  and  _103
REMARK   46  A    between atoms: _103  and  _104
REMARK   47  A    between atoms: _107  and  _109
REMARK   48  A    between atoms: _109  and  _110
REMARK   49  A    between atoms: _109  and  _112
REMARK   50  A    between atoms: _115  and  _117
REMARK   51  A    between atoms: _117  and  _118
REMARK   52  A    between atoms: _117  and  _120
REMARK   53  A    between atoms: _120  and  _121
REMARK   54  A    between atoms: _124  and  _126
REMARK   55  A    between atoms: _126  and  _127
REMARK   56  A    between atoms: _126  and  _129
REMARK   57  A    between atoms: _129  and  _130
REMARK   58  A    between atoms: _130  and  _131
REMARK   59  A    between atoms: _131  and  _132
REMARK   60  A    between atoms: _132  and  _133
REMARK   61  A    between atoms: _137  and  _139
REMARK   62  A    between atoms: _139  and  _140
REMARK   63  A    between atoms: _139  and  _142
REMARK   64  A    between atoms: _142  and  _143
REMARK   65  A    between atoms: _153  and  _155
REMARK   66  A    between atoms: _155  and  _156
REMARK   67  A    between atoms: _155  and  _158
REMARK   68  A    between atoms: _158  and  _159
REMARK   69  A    between atoms: _162  and  _164
REMARK   70  A    between atoms: _164  and  _165
REMARK   71  A    between atoms: _164  and  _167
REMARK   72  A    between atoms: _167  and  _168
REMARK   73  A    between atoms: _168  and  _169
REMARK   74  A    between atoms: _169  and  _170
REMARK   75  A    between atoms: _179  and  _181
REMARK   76  A    between atoms: _181  and  _182
REMARK   77  A    between atoms: _181  and  _184
REMARK   78  A    between atoms: _184  and  _185
REMARK   79  A    between atoms: _191  and  _193
REMARK   80  A    between atoms: _193  and  _194
REMARK   81  A    between atoms: _193  and  _196
REMARK   82  A    between atoms: _196  and  _197
REMARK   83  A    between atoms: _200  and  _202
REMARK   84  A    between atoms: _202  and  _203
REMARK   85  A    between atoms: _202  and  _205
REMARK   86  A    between atoms: _205  and  _206
REMARK   87  A    between atoms: _211  and  _213
REMARK   88  A    between atoms: _213  and  _214
REMARK   89  A    between atoms: _213  and  _216
REMARK   90  A    between atoms: _216  and  _217
REMARK   91  A    between atoms: _221  and  _222
REMARK   92  A    between atoms: _227  and  _229
REMARK   93  A    between atoms: _229  and  _230
REMARK   94  A    between atoms: _229  and  _232
REMARK   95  A    between atoms: _232  and  _233
REMARK   96  A    between atoms: _236  and  _238
REMARK   97  A    between atoms: _238  and  _239
REMARK   98  A    between atoms: _238  and  _241
REMARK   99  A    between atoms: _241  and  _242
REMARK  100  A    between atoms: _245  and  _247
REMARK  101  A    between atoms: _247  and  _248
REMARK  102  A    between atoms: _247  and  _250
REMARK  103  A    between atoms: _250  and  _251
REMARK  104  A    between atoms: _254  and  _256
REMARK  105  A    between atoms: _256  and  _257
REMARK  106  A    between atoms: _256  and  _259
REMARK  107  A    between atoms: _259  and  _260
REMARK  108  A    between atoms: _260  and  _261
REMARK  109  A    between atoms: _261  and  _262
REMARK  110  A    between atoms: _262  and  _263
REMARK  111  A    between atoms: _267  and  _269
REMARK  112  A    between atoms: _269  and  _270
REMARK  113  A    between atoms: _269  and  _272
REMARK  114  A    between atoms: _272  and  _273
REMARK  115  A    between atoms: _273  and  _274
REMARK  116  A    between atoms: _277  and  _279
REMARK  117  A    between atoms: _279  and  _280
REMARK  118  A    between atoms: _279  and  _282
REMARK  119  A    between atoms: _282  and  _283
REMARK  120  A    between atoms: _283  and  _284
REMARK  121  A    between atoms: _284  and  _285
REMARK  122  A    between atoms: _294  and  _296
REMARK  123  A    between atoms: _296  and  _297
REMARK  124  A    between atoms: _296  and  _299
REMARK  125  A    between atoms: _299  and  _300
REMARK  126  A    between atoms: _303  and  _305
REMARK  127  A    between atoms: _305  and  _306
REMARK  128  A    between atoms: _310  and  _311
REMARK  129  A    between atoms: _316  and  _318
REMARK  130  A    between atoms: _318  and  _319
REMARK  131  A    between atoms: _322  and  _324
REMARK  132  A    between atoms: _324  and  _325
REMARK  133  A    between atoms: _324  and  _327
REMARK  134  A    between atoms: _327  and  _328
REMARK  135  A    between atoms: _338  and  _340
REMARK  136  A    between atoms: _340  and  _341
REMARK  137  A    between atoms: _340  and  _343
REMARK  138  A    between atoms: _343  and  _344
REMARK  139  A    between atoms: _347  and  _348
REMARK  140  A    between atoms: _353  and  _355
REMARK  141  A    between atoms: _355  and  _356
REMARK  142  A    between atoms: _355  and  _358
REMARK  143  A    between atoms: _358  and  _359
REMARK  144  A    between atoms: _359  and  _360
REMARK  145  A    between atoms: _360  and  _361
REMARK  146  A    between atoms: _370  and  _372
REMARK  147  A    between atoms: _372  and  _373
REMARK  148  A    between atoms: _372  and  _375
REMARK  149  A    between atoms: _375  and  _376
REMARK  150  A    between atoms: _379  and  _381
REMARK  151  A    between atoms: _381  and  _382
REMARK  152  A    between atoms: _381  and  _384
REMARK  153  A    between atoms: _384  and  _385
REMARK  154  A    between atoms: _388  and  _390
REMARK  155  A    between atoms: _390  and  _391
REMARK  156  A    between atoms: _390  and  _393
REMARK  157  A    between atoms: _393  and  _394
REMARK  158  A    between atoms: _397  and  _399
REMARK  159  A    between atoms: _399  and  _400
REMARK  160  A    between atoms: _399  and  _402
REMARK  161  A    between atoms: _402  and  _403
REMARK  162  A    between atoms: _406  and  _408
REMARK  163  A    between atoms: _408  and  _409
REMARK  164  A    between atoms: _408  and  _411
REMARK  165  A    between atoms: _411  and  _412
REMARK  166  A    between atoms: _415  and  _417
REMARK  167  A    between atoms: _417  and  _418
REMARK  168  A    between atoms: _417  and  _420
REMARK  169  A    between atoms: _420  and  _421
REMARK  170  A    between atoms: _424  and  _426
REMARK  171  A    between atoms: _426  and  _427
REMARK  172  A    between atoms: _430  and  _432
REMARK  173  A    between atoms: _432  and  _433
REMARK  174  A    between atoms: _432  and  _435
REMARK  175  A    between atoms: _435  and  _436
REMARK  176  A    between atoms: _439  and  _441
REMARK  177  A    between atoms: _441  and  _442
REMARK  178  A    between atoms: _441  and  _444
REMARK  179  A    between atoms: _444  and  _445
REMARK  180  A    between atoms: _448  and  _450
REMARK  181  A    between atoms: _450  and  _451
REMARK  182  A    between atoms: _450  and  _453
REMARK  183  A    between atoms: _453  and  _454
REMARK  184  A    between atoms: _457  and  _459
REMARK  185  A    between atoms: _459  and  _460
REMARK  186  A    between atoms: _459  and  _462
REMARK  187  A    between atoms: _462  and  _463
REMARK  188  A    between atoms: _463  and  _464
REMARK  189  A    between atoms: _464  and  _465
REMARK  190  A    between atoms: _465  and  _466
REMARK  191  A    between atoms: _470  and  _472
REMARK  192  A    between atoms: _472  and  _473
REMARK  193  A    between atoms: _472  and  _475
REMARK  194  A    between atoms: _475  and  _476
REMARK  195  A    between atoms: _479  and  _481
REMARK  196  A    between atoms: _481  and  _482
REMARK  197  A    between atoms: _481  and  _484
REMARK  198  A    between atoms: _484  and  _485
REMARK  199  A    between atoms: _488  and  _490
REMARK  200  A    between atoms: _490  and  _491
REMARK  201  A    between atoms: _490  and  _493
REMARK  202  A    between atoms: _493  and  _494
REMARK  203  A    between atoms: _498  and  _499
REMARK  204  A    between atoms: _504  and  _506
REMARK  205  A    between atoms: _506  and  _507
REMARK  206  A    between atoms: _506  and  _509
REMARK  207  A    between atoms: _509  and  _510
REMARK  208  A    between atoms: _515  and  _517
REMARK  209  A    between atoms: _517  and  _518
REMARK  210  A    between atoms: _517  and  _520
REMARK  211  A    between atoms: _520  and  _521
REMARK  212  A    between atoms: _521  and  _522
REMARK  213  A    between atoms: _522  and  _523
REMARK  214  A    between atoms: _523  and  _524
REMARK  215  A    between atoms: _528  and  _530
REMARK  216  A    between atoms: _530  and  _531
REMARK  217  A    between atoms: _530  and  _533
REMARK  218  A    between atoms: _533  and  _534
REMARK  219  A    between atoms: _534  and  _535
REMARK  220  A    between atoms: _538  and  _540
REMARK  221  A    between atoms: _540  and  _541
REMARK  222  A    between atoms: _540  and  _543
REMARK  223  A    between atoms: _543  and  _544
REMARK  224  A    between atoms: _547  and  _549
REMARK  225  A    between atoms: _549  and  _550
REMARK  226  A    between atoms: _549  and  _552
REMARK  227  A    between atoms: _552  and  _553
REMARK  228  A    between atoms: _553  and  _554
REMARK  229  A    between atoms: _554  and  _555
REMARK  230  A    between atoms: _564  and  _566
REMARK  231  A    between atoms: _566  and  _567
REMARK  232  A    between atoms: _566  and  _569
REMARK  233  A    between atoms: _569  and  _570
REMARK  234  A    between atoms: _572  and  _574
REMARK  235  A    between atoms: _574  and  _575
REMARK  236  A    between atoms: _574  and  _577
REMARK  237  A    between atoms: _577  and  _578
REMARK  238  A    between atoms: _584  and  _586
REMARK  239  A    between atoms: _586  and  _587
REMARK  240  A    between atoms: _590  and  _592
REMARK  241  A    between atoms: _592  and  _593
REMARK  242  A    between atoms: _592  and  _595
REMARK  243  A    between atoms: _595  and  _596
REMARK  244  A    between atoms: _596  and  _597
REMARK  245  A    between atoms: _600  and  _602
REMARK  246  A    between atoms: _602  and  _603
REMARK  247  A    between atoms: _602  and  _605
REMARK  248  A    between atoms: _605  and  _606
REMARK                            x       y       z     vdW  Elec       q    Type
REMARK                         _______ _______ _______ _____ _____    ______ ____
ROOT
ATOM      1  O   HOH     1      18.548  26.419  -9.046  0.00  0.00    +0.000 OA
ENDROOT
TORSDOF 0
REMARK  Name = ../refined-set-2016/4pzv/4pzv_pocket.pdb
REMARK  248 active torsions:
REMARK  status: ('A' for Active; 'I' for Inactive)
REMARK    1  A    between atoms: _1  and  _3
REMARK    2  A    between atoms: _3  and  _4
REMARK    3  A    between atoms: _3  and  _6
REMARK    4  A    between atoms: _6  and  _7
REMARK    5  A    between atoms: _10  and  _12
REMARK    6  A    between atoms: _12  and  _13
REMARK    7  A    between atoms: _12  and  _15
REMARK    8  A    between atoms: _15  and  _16
REMARK    9  A    between atoms: _19  and  _21
REMARK   10  A    between atoms: _21  and  _22
REMARK   11  A    between atoms: _24  and  _26
REMARK   12  A    between atoms: _26  and  _27
REMARK   13  A    between atoms: _26  and  _29
REMARK   14  A    between atoms: _29  and  _30
REMARK   15  A    between atoms: _33  and  _35
REMARK   16  A    between atoms: _35  and  _36
REMARK   17  A    between atoms: _38  and  _40
REMARK   18  A    between atoms: _40  and  _41
REMARK   19  A    between atoms: _40  and  _43
REMARK   20  A    between atoms: _43  and  _44
REMARK   21  A    between atoms: _47  and  _49
REMARK   22  A    between atoms: _49  and  _50
REMARK   23  A    between atoms: _49  and  _52
REMARK   24  A    between atoms: _52  and  _53
REMARK   25  A    between atoms: _58  and  _60
REMARK   26  A    between atoms: _60  and  _61
REMARK   27  A    between atoms: _60  and  _63
REMARK   28  A    between atoms: _63  and  _64
REMARK   29  A    between atoms: _69  and  _70
REMARK   30  A    between atoms: _72  and  _74
REMARK   31  A    between atoms: _74  and  _75
REMARK   32  A    between atoms: _74  and  _77
REMARK   33  A    between atoms: _77  and  _78
REMARK   34  A    between atoms: _80  and  _82
REMARK   35  A    between atoms: _82  and  _83
REMARK   36  A    between atoms: _82  and  _85
REMARK   37  A    between atoms: _85  and  _86
REMARK   38  A    between atoms: _88  and  _90
REMARK   39  A    between atoms: _90  and  _91
REMARK   40  A    between atoms: _90  and  _93
REMARK   41  A    between atoms: _93  and  _94
REMARK   42  A    between atoms: _94  and  _95
REMARK   43  A    between atoms: _95  and  _96
REMARK   44  A    between atoms: _96  and  _97
REMARK   45  A    between atoms: _101  and  _103
REMARK   46  A    between atoms: _103  and  _104
REMARK   47  A    between atoms: _107  and  _109
REMARK   48  A    between atoms: _109  and  _110
REMARK   49  A    between atoms: _109  and  _112
REMARK   50  A    between atoms: _115  and  _117
REMARK   51  A    between atoms: _117  and  _118
REMARK   52  A    between atoms: _117  and  _120
REMARK   53  A    between atoms: _120  and  _121
REMARK   54  A    between atoms: _124  and  _126
REMARK   55  A    between atoms: _126  and  _127
REMARK   56  A    between atoms: _126  and  _129
REMARK   57  A    between atoms: _129  and  _130
REMARK   58  A    between atoms: _130  and  _131
REMARK   59  A    between atoms: _131  and  _132
REMARK   60  A    between atoms: _132  and  _133
REMARK   61  A    between atoms: _137  and  _139
REMARK   62  A    between atoms: _139  and  _140
REMARK   63  A    between atoms: _139  and  _142
REMARK   64  A    between atoms: _142  and  _143
REMARK   65  A    between atoms: _153  and  _155
REMARK   66  A    between atoms: _155  and  _156
REMARK   67  A    between atoms: _155  and  _158
REMARK   68  A    between atoms: _158  and  _159
REMARK   69  A    between atoms: _162  and  _164
REMARK   70  A    between atoms: _164  and  _165
REMARK   71  A    between atoms: _164  and  _167
REMARK   72  A    between atoms: _167  and  _168
REMARK   73  A    between atoms: _168  and  _169
REMARK   74  A    between atoms: _169  and  _170
REMARK   75  A    between atoms: _179  and  _181
REMARK   76  A    between atoms: _181  and  _182
REMARK   77  A    between atoms: _181  and  _184
REMARK   78  A    between atoms: _184  and  _185
REMARK   79  A    between atoms: _191  and  _193
REMARK   80  A    between atoms: _193  and  _194
REMARK   81  A    between atoms: _193  and  _196
REMARK   82  A    between atoms: _196  and  _197
REMARK   83  A    between atoms: _200  and  _202
REMARK   84  A    between atoms: _202  and  _203
REMARK   85  A    between atoms: _202  and  _205
REMARK   86  A    between atoms: _205  and  _206
REMARK   87  A    between atoms: _211  and  _213
REMARK   88  A    between atoms: _213  and  _214
REMARK   89  A    between atoms: _213  and  _216
REMARK   90  A    between atoms: _216  and  _217
REMARK   91  A    between atoms: _221  and  _222
REMARK   92  A    between atoms: _227  and  _229
REMARK   93  A    between atoms: _229  and  _230
REMARK   94  A    between atoms: _229  and  _232
REMARK   95  A    between atoms: _232  and  _233
REMARK   96  A    between atoms: _236  and  _238
REMARK   97  A    between atoms: _238  and  _239
REMARK   98  A    between atoms: _238  and  _241
REMARK   99  A    between atoms: _241  and  _242
REMARK  100  A    between atoms: _245  and  _247
REMARK  101  A    between atoms: _247  and  _248
REMARK  102  A    between atoms: _247  and  _250
REMARK  103  A    between atoms: _250  and  _251
REMARK  104  A    between atoms: _254  and  _256
REMARK  105  A    between atoms: _256  and  _257
REMARK  106  A    between atoms: _256  and  _259
REMARK  107  A    between atoms: _259  and  _260
REMARK  108  A    between atoms: _260  and  _261
REMARK  109  A    between atoms: _261  and  _262
REMARK  110  A    between atoms: _262  and  _263
REMARK  111  A    between atoms: _267  and  _269
REMARK  112  A    between atoms: _269  and  _270
REMARK  113  A    between atoms: _269  and  _272
REMARK  114  A    between atoms: _272  and  _273
REMARK  115  A    between atoms: _273  and  _274
REMARK  116  A    between atoms: _277  and  _279
REMARK  117  A    between atoms: _279  and  _280
REMARK  118  A    between atoms: _279  and  _282
REMARK  119  A    between atoms: _282  and  _283
REMARK  120  A    between atoms: _283  and  _284
REMARK  121  A    between atoms: _284  and  _285
REMARK  122  A    between atoms: _294  and  _296
REMARK  123  A    between atoms: _296  and  _297
REMARK  124  A    between atoms: _296  and  _299
REMARK  125  A    between atoms: _299  and  _300
REMARK  126  A    between atoms: _303  and  _305
REMARK  127  A    between atoms: _305  and  _306
REMARK  128  A    between atoms: _310  and  _311
REMARK  129  A    between atoms: _316  and  _318
REMARK  130  A    between atoms: _318  and  _319
REMARK  131  A    between atoms: _322  and  _324
REMARK  132  A    between atoms: _324  and  _325
REMARK  133  A    between atoms: _324  and  _327
REMARK  134  A    between atoms: _327  and  _328
REMARK  135  A    between atoms: _338  and  _340
REMARK  136  A    between atoms: _340  and  _341
REMARK  137  A    between atoms: _340  and  _343
REMARK  138  A    between atoms: _343  and  _344
REMARK  139  A    between atoms: _347  and  _348
REMARK  140  A    between atoms: _353  and  _355
REMARK  141  A    between atoms: _355  and  _356
REMARK  142  A    between atoms: _355  and  _358
REMARK  143  A    between atoms: _358  and  _359
REMARK  144  A    between atoms: _359  and  _360
REMARK  145  A    between atoms: _360  and  _361
REMARK  146  A    between atoms: _370  and  _372
REMARK  147  A    between atoms: _372  and  _373
REMARK  148  A    between atoms: _372  and  _375
REMARK  149  A    between atoms: _375  and  _376
REMARK  150  A    between atoms: _379  and  _381
REMARK  151  A    between atoms: _381  and  _382
REMARK  152  A    between atoms: _381  and  _384
REMARK  153  A    between atoms: _384  and  _385
REMARK  154  A    between atoms: _388  and  _390
REMARK  155  A    between atoms: _390  and  _391
REMARK  156  A    between atoms: _390  and  _393
REMARK  157  A    between atoms: _393  and  _394
REMARK  158  A    between atoms: _397  and  _399
REMARK  159  A    between atoms: _399  and  _400
REMARK  160  A    between atoms: _399  and  _402
REMARK  161  A    between atoms: _402  and  _403
REMARK  162  A    between atoms: _406  and  _408
REMARK  163  A    between atoms: _408  and  _409
REMARK  164  A    between atoms: _408  and  _411
REMARK  165  A    between atoms: _411  and  _412
REMARK  166  A    between atoms: _415  and  _417
REMARK  167  A    between atoms: _417  and  _418
REMARK  168  A    between atoms: _417  and  _420
REMARK  169  A    between atoms: _420  and  _421
REMARK  170  A    between atoms: _424  and  _426
REMARK  171  A    between atoms: _426  and  _427
REMARK  172  A    between atoms: _430  and  _432
REMARK  173  A    between atoms: _432  and  _433
REMARK  174  A    between atoms: _432  and  _435
REMARK  175  A    between atoms: _435  and  _436
REMARK  176  A    between atoms: _439  and  _441
REMARK  177  A    between atoms: _441  and  _442
REMARK  178  A    between atoms: _441  and  _444
REMARK  179  A    between atoms: _444  and  _445
REMARK  180  A    between atoms: _448  and  _450
REMARK  181  A    between atoms: _450  and  _451
REMARK  182  A    between atoms: _450  and  _453
REMARK  183  A    between atoms: _453  and  _454
REMARK  184  A    between atoms: _457  and  _459
REMARK  185  A    between atoms: _459  and  _460
REMARK  186  A    between atoms: _459  and  _462
REMARK  187  A    between atoms: _462  and  _463
REMARK  188  A    between atoms: _463  and  _464
REMARK  189  A    between atoms: _464  and  _465
REMARK  190  A    between atoms: _465  and  _466
REMARK  191  A    between atoms: _470  and  _472
REMARK  192  A    between atoms: _472  and  _473
REMARK  193  A    between atoms: _472  and  _475
REMARK  194  A    between atoms: _475  and  _476
REMARK  195  A    between atoms: _479  and  _481
REMARK  196  A    between atoms: _481  and  _482
REMARK  197  A    between atoms: _481  and  _484
REMARK  198  A    between atoms: _484  and  _485
REMARK  199  A    between atoms: _488  and  _490
REMARK  200  A    between atoms: _490  and  _491
REMARK  201  A    between atoms: _490  and  _493
REMARK  202  A    between atoms: _493  and  _494
REMARK  203  A    between atoms: _498  and  _499
REMARK  204  A    between atoms: _504  and  _506
REMARK  205  A    between atoms: _506  and  _507
REMARK  206  A    between atoms: _506  and  _509
REMARK  207  A    between atoms: _509  and  _510
REMARK  208  A    between atoms: _515  and  _517
REMARK  209  A    between atoms: _517  and  _518
REMARK  210  A    between atoms: _517  and  _520
REMARK  211  A    between atoms: _520  and  _521
REMARK  212  A    between atoms: _521  and  _522
REMARK  213  A    between atoms: _522  and  _523
REMARK  214  A    between atoms: _523  and  _524
REMARK  215  A    between atoms: _528  and  _530
REMARK  216  A    between atoms: _530  and  _531
REMARK  217  A    between atoms: _530  and  _533
REMARK  218  A    between atoms: _533  and  _534
REMARK  219  A    between atoms: _534  and  _535
REMARK  220  A    between atoms: _538  and  _540
REMARK  221  A    between atoms: _540  and  _541
REMARK  222  A    between atoms: _540  and  _543
REMARK  223  A    between atoms: _543  and  _544
REMARK  224  A    between atoms: _547  and  _549
REMARK  225  A    between atoms: _549  and  _550
REMARK  226  A    between atoms: _549  and  _552
REMARK  227  A    between atoms: _552  and  _553
REMARK  228  A    between atoms: _553  and  _554
REMARK  229  A    between atoms: _554  and  _555
REMARK  230  A    between atoms: _564  and  _566
REMARK  231  A    between atoms: _566  and  _567
REMARK  232  A    between atoms: _566  and  _569
REMARK  233  A    between atoms: _569  and  _570
REMARK  234  A    between atoms: _572  and  _574
REMARK  235  A    between atoms: _574  and  _575
REMARK  236  A    between atoms: _574  and  _577
REMARK  237  A    between atoms: _577  and  _578
REMARK  238  A    between atoms: _584  and  _586
REMARK  239  A    between atoms: _586  and  _587
REMARK  240  A    between atoms: _590  and  _592
REMARK  241  A    between atoms: _592  and  _593
REMARK  242  A    between atoms: _592  and  _595
REMARK  243  A    between atoms: _595  and  _596
REMARK  244  A    between atoms: _596  and  _597
REMARK  245  A    between atoms: _600  and  _602
REMARK  246  A    between atoms: _602  and  _603
REMARK  247  A    between atoms: _602  and  _605
REMARK  248  A    between atoms: _605  and  _606
REMARK                            x       y       z     vdW  Elec       q    Type
REMARK                         _______ _______ _______ _____ _____    ______ ____
ROOT
ATOM      1  O   HOH     1      -0.624  28.803  -9.350  0.00  0.00    +0.000 OA
ENDROOT
TORSDOF 0
REMARK  Name = ../refined-set-2016/4pzv/4pzv_pocket.pdb
REMARK  248 active torsions:
REMARK  status: ('A' for Active; 'I' for Inactive)
REMARK    1  A    between atoms: _1  and  _3
REMARK    2  A    between atoms: _3  and  _4
REMARK    3  A    between atoms: _3  and  _6
REMARK    4  A    between atoms: _6  and  _7
REMARK    5  A    between atoms: _10  and  _12
REMARK    6  A    between atoms: _12  and  _13
REMARK    7  A    between atoms: _12  and  _15
REMARK    8  A    between atoms: _15  and  _16
REMARK    9  A    between atoms: _19  and  _21
REMARK   10  A    between atoms: _21  and  _22
REMARK   11  A    between atoms: _24  and  _26
REMARK   12  A    between atoms: _26  and  _27
REMARK   13  A    between atoms: _26  and  _29
REMARK   14  A    between atoms: _29  and  _30
REMARK   15  A    between atoms: _33  and  _35
REMARK   16  A    between atoms: _35  and  _36
REMARK   17  A    between atoms: _38  and  _40
REMARK   18  A    between atoms: _40  and  _41
REMARK   19  A    between atoms: _40  and  _43
REMARK   20  A    between atoms: _43  and  _44
REMARK   21  A    between atoms: _47  and  _49
REMARK   22  A    between atoms: _49  and  _50
REMARK   23  A    between atoms: _49  and  _52
REMARK   24  A    between atoms: _52  and  _53
REMARK   25  A    between atoms: _58  and  _60
REMARK   26  A    between atoms: _60  and  _61
REMARK   27  A    between atoms: _60  and  _63
REMARK   28  A    between atoms: _63  and  _64
REMARK   29  A    between atoms: _69  and  _70
REMARK   30  A    between atoms: _72  and  _74
REMARK   31  A    between atoms: _74  and  _75
REMARK   32  A    between atoms: _74  and  _77
REMARK   33  A    between atoms: _77  and  _78
REMARK   34  A    between atoms: _80  and  _82
REMARK   35  A    between atoms: _82  and  _83
REMARK   36  A    between atoms: _82  and  _85
REMARK   37  A    between atoms: _85  and  _86
REMARK   38  A    between atoms: _88  and  _90
REMARK   39  A    between atoms: _90  and  _91
REMARK   40  A    between atoms: _90  and  _93
REMARK   41  A    between atoms: _93  and  _94
REMARK   42  A    between atoms: _94  and  _95
REMARK   43  A    between atoms: _95  and  _96
REMARK   44  A    between atoms: _96  and  _97
REMARK   45  A    between atoms: _101  and  _103
REMARK   46  A    between atoms: _103  and  _104
REMARK   47  A    between atoms: _107  and  _109
REMARK   48  A    between atoms: _109  and  _110
REMARK   49  A    between atoms: _109  and  _112
REMARK   50  A    between atoms: _115  and  _117
REMARK   51  A    between atoms: _117  and  _118
REMARK   52  A    between atoms: _117  and  _120
REMARK   53  A    between atoms: _120  and  _121
REMARK   54  A    between atoms: _124  and  _126
REMARK   55  A    between atoms: _126  and  _127
REMARK   56  A    between atoms: _126  and  _129
REMARK   57  A    between atoms: _129  and  _130
REMARK   58  A    between atoms: _130  and  _131
REMARK   59  A    between atoms: _131  and  _132
REMARK   60  A    between atoms: _132  and  _133
REMARK   61  A    between atoms: _137  and  _139
REMARK   62  A    between atoms: _139  and  _140
REMARK   63  A    between atoms: _139  and  _142
REMARK   64  A    between atoms: _142  and  _143
REMARK   65  A    between atoms: _153  and  _155
REMARK   66  A    between atoms: _155  and  _156
REMARK   67  A    between atoms: _155  and  _158
REMARK   68  A    between atoms: _158  and  _159
REMARK   69  A    between atoms: _162  and  _164
REMARK   70  A    between atoms: _164  and  _165
REMARK   71  A    between atoms: _164  and  _167
REMARK   72  A    between atoms: _167  and  _168
REMARK   73  A    between atoms: _168  and  _169
REMARK   74  A    between atoms: _169  and  _170
REMARK   75  A    between atoms: _179  and  _181
REMARK   76  A    between atoms: _181  and  _182
REMARK   77  A    between atoms: _181  and  _184
REMARK   78  A    between atoms: _184  and  _185
REMARK   79  A    between atoms: _191  and  _193
REMARK   80  A    between atoms: _193  and  _194
REMARK   81  A    between atoms: _193  and  _196
REMARK   82  A    between atoms: _196  and  _197
REMARK   83  A    between atoms: _200  and  _202
REMARK   84  A    between atoms: _202  and  _203
REMARK   85  A    between atoms: _202  and  _205
REMARK   86  A    between atoms: _205  and  _206
REMARK   87  A    between atoms: _211  and  _213
REMARK   88  A    between atoms: _213  and  _214
REMARK   89  A    between atoms: _213  and  _216
REMARK   90  A    between atoms: _216  and  _217
REMARK   91  A    between atoms: _221  and  _222
REMARK   92  A    between atoms: _227  and  _229
REMARK   93  A    between atoms: _229  and  _230
REMARK   94  A    between atoms: _229  and  _232
REMARK   95  A    between atoms: _232  and  _233
REMARK   96  A    between atoms: _236  and  _238
REMARK   97  A    between atoms: _238  and  _239
REMARK   98  A    between atoms: _238  and  _241
REMARK   99  A    between atoms: _241  and  _242
REMARK  100  A    between atoms: _245  and  _247
REMARK  101  A    between atoms: _247  and  _248
REMARK  102  A    between atoms: _247  and  _250
REMARK  103  A    between atoms: _250  and  _251
REMARK  104  A    between atoms: _254  and  _256
REMARK  105  A    between atoms: _256  and  _257
REMARK  106  A    between atoms: _256  and  _259
REMARK  107  A    between atoms: _259  and  _260
REMARK  108  A    between atoms: _260  and  _261
REMARK  109  A    between atoms: _261  and  _262
REMARK  110  A    between atoms: _262  and  _263
REMARK  111  A    between atoms: _267  and  _269
REMARK  112  A    between atoms: _269  and  _270
REMARK  113  A    between atoms: _269  and  _272
REMARK  114  A    between atoms: _272  and  _273
REMARK  115  A    between atoms: _273  and  _274
REMARK  116  A    between atoms: _277  and  _279
REMARK  117  A    between atoms: _279  and  _280
REMARK  118  A    between atoms: _279  and  _282
REMARK  119  A    between atoms: _282  and  _283
REMARK  120  A    between atoms: _283  and  _284
REMARK  121  A    between atoms: _284  and  _285
REMARK  122  A    between atoms: _294  and  _296
REMARK  123  A    between atoms: _296  and  _297
REMARK  124  A    between atoms: _296  and  _299
REMARK  125  A    between atoms: _299  and  _300
REMARK  126  A    between atoms: _303  and  _305
REMARK  127  A    between atoms: _305  and  _306
REMARK  128  A    between atoms: _310  and  _311
REMARK  129  A    between atoms: _316  and  _318
REMARK  130  A    between atoms: _318  and  _319
REMARK  131  A    between atoms: _322  and  _324
REMARK  132  A    between atoms: _324  and  _325
REMARK  133  A    between atoms: _324  and  _327
REMARK  134  A    between atoms: _327  and  _328
REMARK  135  A    between atoms: _338  and  _340
REMARK  136  A    between atoms: _340  and  _341
REMARK  137  A    between atoms: _340  and  _343
REMARK  138  A    between atoms: _343  and  _344
REMARK  139  A    between atoms: _347  and  _348
REMARK  140  A    between atoms: _353  and  _355
REMARK  141  A    between atoms: _355  and  _356
REMARK  142  A    between atoms: _355  and  _358
REMARK  143  A    between atoms: _358  and  _359
REMARK  144  A    between atoms: _359  and  _360
REMARK  145  A    between atoms: _360  and  _361
REMARK  146  A    between atoms: _370  and  _372
REMARK  147  A    between atoms: _372  and  _373
REMARK  148  A    between atoms: _372  and  _375
REMARK  149  A    between atoms: _375  and  _376
REMARK  150  A    between atoms: _379  and  _381
REMARK  151  A    between atoms: _381  and  _382
REMARK  152  A    between atoms: _381  and  _384
REMARK  153  A    between atoms: _384  and  _385
REMARK  154  A    between atoms: _388  and  _390
REMARK  155  A    between atoms: _390  and  _391
REMARK  156  A    between atoms: _390  and  _393
REMARK  157  A    between atoms: _393  and  _394
REMARK  158  A    between atoms: _397  and  _399
REMARK  159  A    between atoms: _399  and  _400
REMARK  160  A    between atoms: _399  and  _402
REMARK  161  A    between atoms: _402  and  _403
REMARK  162  A    between atoms: _406  and  _408
REMARK  163  A    between atoms: _408  and  _409
REMARK  164  A    between atoms: _408  and  _411
REMARK  165  A    between atoms: _411  and  _412
REMARK  166  A    between atoms: _415  and  _417
REMARK  167  A    between atoms: _417  and  _418
REMARK  168  A    between atoms: _417  and  _420
REMARK  169  A    between atoms: _420  and  _421
REMARK  170  A    between atoms: _424  and  _426
REMARK  171  A    between atoms: _426  and  _427
REMARK  172  A    between atoms: _430  and  _432
REMARK  173  A    between atoms: _432  and  _433
REMARK  174  A    between atoms: _432  and  _435
REMARK  175  A    between atoms: _435  and  _436
REMARK  176  A    between atoms: _439  and  _441
REMARK  177  A    between atoms: _441  and  _442
REMARK  178  A    between atoms: _441  and  _444
REMARK  179  A    between atoms: _444  and  _445
REMARK  180  A    between atoms: _448  and  _450
REMARK  181  A    between atoms: _450  and  _451
REMARK  182  A    between atoms: _450  and  _453
REMARK  183  A    between atoms: _453  and  _454
REMARK  184  A    between atoms: _457  and  _459
REMARK  185  A    between atoms: _459  and  _460
REMARK  186  A    between atoms: _459  and  _462
REMARK  187  A    between atoms: _462  and  _463
REMARK  188  A    between atoms: _463  and  _464
REMARK  189  A    between atoms: _464  and  _465
REMARK  190  A    between atoms: _465  and  _466
REMARK  191  A    between atoms: _470  and  _472
REMARK  192  A    between atoms: _472  and  _473
REMARK  193  A    between atoms: _472  and  _475
REMARK  194  A    between atoms: _475  and  _476
REMARK  195  A    between atoms: _479  and  _481
REMARK  196  A    between atoms: _481  and  _482
REMARK  197  A    between atoms: _481  and  _484
REMARK  198  A    between atoms: _484  and  _485
REMARK  199  A    between atoms: _488  and  _490
REMARK  200  A    between atoms: _490  and  _491
REMARK  201  A    between atoms: _490  and  _493
REMARK  202  A    between atoms: _493  and  _494
REMARK  203  A    between atoms: _498  and  _499
REMARK  204  A    between atoms: _504  and  _506
REMARK  205  A    between atoms: _506  and  _507
REMARK  206  A    between atoms: _506  and  _509
REMARK  207  A    between atoms: _509  and  _510
REMARK  208  A    between atoms: _515  and  _517
REMARK  209  A    between atoms: _517  and  _518
REMARK  210  A    between atoms: _517  and  _520
REMARK  211  A    between atoms: _520  and  _521
REMARK  212  A    between atoms: _521  and  _522
REMARK  213  A    between atoms: _522  and  _523
REMARK  214  A    between atoms: _523  and  _524
REMARK  215  A    between atoms: _528  and  _530
REMARK  216  A    between atoms: _530  and  _531
REMARK  217  A    between atoms: _530  and  _533
REMARK  218  A    between atoms: _533  and  _534
REMARK  219  A    between atoms: _534  and  _535
REMARK  220  A    between atoms: _538  and  _540
REMARK  221  A    between atoms: _540  and  _541
REMARK  222  A    between atoms: _540  and  _543
REMARK  223  A    between atoms: _543  and  _544
REMARK  224  A    between atoms: _547  and  _549
REMARK  225  A    between atoms: _549  and  _550
REMARK  226  A    between atoms: _549  and  _552
REMARK  227  A    between atoms: _552  and  _553
REMARK  228  A    between atoms: _553  and  _554
REMARK  229  A    between atoms: _554  and  _555
REMARK  230  A    between atoms: _564  and  _566
REMARK  231  A    between atoms: _566  and  _567
REMARK  232  A    between atoms: _566  and  _569
REMARK  233  A    between atoms: _569  and  _570
REMARK  234  A    between atoms: _572  and  _574
REMARK  235  A    between atoms: _574  and  _575
REMARK  236  A    between atoms: _574  and  _577
REMARK  237  A    between atoms: _577  and  _578
REMARK  238  A    between atoms: _584  and  _586
REMARK  239  A    between atoms: _586  and  _587
REMARK  240  A    between atoms: _590  and  _592
REMARK  241  A    between atoms: _592  and  _593
REMARK  242  A    between atoms: _592  and  _595
REMARK  243  A    between atoms: _595  and  _596
REMARK  244  A    between atoms: _596  and  _597
REMARK  245  A    between atoms: _600  and  _602
REMARK  246  A    between atoms: _602  and  _603
REMARK  247  A    between atoms: _602  and  _605
REMARK  248  A    between atoms: _605  and  _606
REMARK                            x       y       z     vdW  Elec       q    Type
REMARK                         _______ _______ _______ _____ _____    ______ ____
ROOT
ATOM      1  O   HOH     1      -6.614  33.468 -13.538  0.00  0.00    +0.000 OA
ENDROOT
TORSDOF 0
REMARK  Name = ../refined-set-2016/4pzv/4pzv_pocket.pdb
REMARK  248 active torsions:
REMARK  status: ('A' for Active; 'I' for Inactive)
REMARK    1  A    between atoms: _1  and  _3
REMARK    2  A    between atoms: _3  and  _4
REMARK    3  A    between atoms: _3  and  _6
REMARK    4  A    between atoms: _6  and  _7
REMARK    5  A    between atoms: _10  and  _12
REMARK    6  A    between atoms: _12  and  _13
REMARK    7  A    between atoms: _12  and  _15
REMARK    8  A    between atoms: _15  and  _16
REMARK    9  A    between atoms: _19  and  _21
REMARK   10  A    between atoms: _21  and  _22
REMARK   11  A    between atoms: _24  and  _26
REMARK   12  A    between atoms: _26  and  _27
REMARK   13  A    between atoms: _26  and  _29
REMARK   14  A    between atoms: _29  and  _30
REMARK   15  A    between atoms: _33  and  _35
REMARK   16  A    between atoms: _35  and  _36
REMARK   17  A    between atoms: _38  and  _40
REMARK   18  A    between atoms: _40  and  _41
REMARK   19  A    between atoms: _40  and  _43
REMARK   20  A    between atoms: _43  and  _44
REMARK   21  A    between atoms: _47  and  _49
REMARK   22  A    between atoms: _49  and  _50
REMARK   23  A    between atoms: _49  and  _52
REMARK   24  A    between atoms: _52  and  _53
REMARK   25  A    between atoms: _58  and  _60
REMARK   26  A    between atoms: _60  and  _61
REMARK   27  A    between atoms: _60  and  _63
REMARK   28  A    between atoms: _63  and  _64
REMARK   29  A    between atoms: _69  and  _70
REMARK   30  A    between atoms: _72  and  _74
REMARK   31  A    between atoms: _74  and  _75
REMARK   32  A    between atoms: _74  and  _77
REMARK   33  A    between atoms: _77  and  _78
REMARK   34  A    between atoms: _80  and  _82
REMARK   35  A    between atoms: _82  and  _83
REMARK   36  A    between atoms: _82  and  _85
REMARK   37  A    between atoms: _85  and  _86
REMARK   38  A    between atoms: _88  and  _90
REMARK   39  A    between atoms: _90  and  _91
REMARK   40  A    between atoms: _90  and  _93
REMARK   41  A    between atoms: _93  and  _94
REMARK   42  A    between atoms: _94  and  _95
REMARK   43  A    between atoms: _95  and  _96
REMARK   44  A    between atoms: _96  and  _97
REMARK   45  A    between atoms: _101  and  _103
REMARK   46  A    between atoms: _103  and  _104
REMARK   47  A    between atoms: _107  and  _109
REMARK   48  A    between atoms: _109  and  _110
REMARK   49  A    between atoms: _109  and  _112
REMARK   50  A    between atoms: _115  and  _117
REMARK   51  A    between atoms: _117  and  _118
REMARK   52  A    between atoms: _117  and  _120
REMARK   53  A    between atoms: _120  and  _121
REMARK   54  A    between atoms: _124  and  _126
REMARK   55  A    between atoms: _126  and  _127
REMARK   56  A    between atoms: _126  and  _129
REMARK   57  A    between atoms: _129  and  _130
REMARK   58  A    between atoms: _130  and  _131
REMARK   59  A    between atoms: _131  and  _132
REMARK   60  A    between atoms: _132  and  _133
REMARK   61  A    between atoms: _137  and  _139
REMARK   62  A    between atoms: _139  and  _140
REMARK   63  A    between atoms: _139  and  _142
REMARK   64  A    between atoms: _142  and  _143
REMARK   65  A    between atoms: _153  and  _155
REMARK   66  A    between atoms: _155  and  _156
REMARK   67  A    between atoms: _155  and  _158
REMARK   68  A    between atoms: _158  and  _159
REMARK   69  A    between atoms: _162  and  _164
REMARK   70  A    between atoms: _164  and  _165
REMARK   71  A    between atoms: _164  and  _167
REMARK   72  A    between atoms: _167  and  _168
REMARK   73  A    between atoms: _168  and  _169
REMARK   74  A    between atoms: _169  and  _170
REMARK   75  A    between atoms: _179  and  _181
REMARK   76  A    between atoms: _181  and  _182
REMARK   77  A    between atoms: _181  and  _184
REMARK   78  A    between atoms: _184  and  _185
REMARK   79  A    between atoms: _191  and  _193
REMARK   80  A    between atoms: _193  and  _194
REMARK   81  A    between atoms: _193  and  _196
REMARK   82  A    between atoms: _196  and  _197
REMARK   83  A    between atoms: _200  and  _202
REMARK   84  A    between atoms: _202  and  _203
REMARK   85  A    between atoms: _202  and  _205
REMARK   86  A    between atoms: _205  and  _206
REMARK   87  A    between atoms: _211  and  _213
REMARK   88  A    between atoms: _213  and  _214
REMARK   89  A    between atoms: _213  and  _216
REMARK   90  A    between atoms: _216  and  _217
REMARK   91  A    between atoms: _221  and  _222
REMARK   92  A    between atoms: _227  and  _229
REMARK   93  A    between atoms: _229  and  _230
REMARK   94  A    between atoms: _229  and  _232
REMARK   95  A    between atoms: _232  and  _233
REMARK   96  A    between atoms: _236  and  _238
REMARK   97  A    between atoms: _238  and  _239
REMARK   98  A    between atoms: _238  and  _241
REMARK   99  A    between atoms: _241  and  _242
REMARK  100  A    between atoms: _245  and  _247
REMARK  101  A    between atoms: _247  and  _248
REMARK  102  A    between atoms: _247  and  _250
REMARK  103  A    between atoms: _250  and  _251
REMARK  104  A    between atoms: _254  and  _256
REMARK  105  A    between atoms: _256  and  _257
REMARK  106  A    between atoms: _256  and  _259
REMARK  107  A    between atoms: _259  and  _260
REMARK  108  A    between atoms: _260  and  _261
REMARK  109  A    between atoms: _261  and  _262
REMARK  110  A    between atoms: _262  and  _263
REMARK  111  A    between atoms: _267  and  _269
REMARK  112  A    between atoms: _269  and  _270
REMARK  113  A    between atoms: _269  and  _272
REMARK  114  A    between atoms: _272  and  _273
REMARK  115  A    between atoms: _273  and  _274
REMARK  116  A    between atoms: _277  and  _279
REMARK  117  A    between atoms: _279  and  _280
REMARK  118  A    between atoms: _279  and  _282
REMARK  119  A    between atoms: _282  and  _283
REMARK  120  A    between atoms: _283  and  _284
REMARK  121  A    between atoms: _284  and  _285
REMARK  122  A    between atoms: _294  and  _296
REMARK  123  A    between atoms: _296  and  _297
REMARK  124  A    between atoms: _296  and  _299
REMARK  125  A    between atoms: _299  and  _300
REMARK  126  A    between atoms: _303  and  _305
REMARK  127  A    between atoms: _305  and  _306
REMARK  128  A    between atoms: _310  and  _311
REMARK  129  A    between atoms: _316  and  _318
REMARK  130  A    between atoms: _318  and  _319
REMARK  131  A    between atoms: _322  and  _324
REMARK  132  A    between atoms: _324  and  _325
REMARK  133  A    between atoms: _324  and  _327
REMARK  134  A    between atoms: _327  and  _328
REMARK  135  A    between atoms: _338  and  _340
REMARK  136  A    between atoms: _340  and  _341
REMARK  137  A    between atoms: _340  and  _343
REMARK  138  A    between atoms: _343  and  _344
REMARK  139  A    between atoms: _347  and  _348
REMARK  140  A    between atoms: _353  and  _355
REMARK  141  A    between atoms: _355  and  _356
REMARK  142  A    between atoms: _355  and  _358
REMARK  143  A    between atoms: _358  and  _359
REMARK  144  A    between atoms: _359  and  _360
REMARK  145  A    between atoms: _360  and  _361
REMARK  146  A    between atoms: _370  and  _372
REMARK  147  A    between atoms: _372  and  _373
REMARK  148  A    between atoms: _372  and  _375
REMARK  149  A    between atoms: _375  and  _376
REMARK  150  A    between atoms: _379  and  _381
REMARK  151  A    between atoms: _381  and  _382
REMARK  152  A    between atoms: _381  and  _384
REMARK  153  A    between atoms: _384  and  _385
REMARK  154  A    between atoms: _388  and  _390
REMARK  155  A    between atoms: _390  and  _391
REMARK  156  A    between atoms: _390  and  _393
REMARK  157  A    between atoms: _393  and  _394
REMARK  158  A    between atoms: _397  and  _399
REMARK  159  A    between atoms: _399  and  _400
REMARK  160  A    between atoms: _399  and  _402
REMARK  161  A    between atoms: _402  and  _403
REMARK  162  A    between atoms: _406  and  _408
REMARK  163  A    between atoms: _408  and  _409
REMARK  164  A    between atoms: _408  and  _411
REMARK  165  A    between atoms: _411  and  _412
REMARK  166  A    between atoms: _415  and  _417
REMARK  167  A    between atoms: _417  and  _418
REMARK  168  A    between atoms: _417  and  _420
REMARK  169  A    between atoms: _420  and  _421
REMARK  170  A    between atoms: _424  and  _426
REMARK  171  A    between atoms: _426  and  _427
REMARK  172  A    between atoms: _430  and  _432
REMARK  173  A    between atoms: _432  and  _433
REMARK  174  A    between atoms: _432  and  _435
REMARK  175  A    between atoms: _435  and  _436
REMARK  176  A    between atoms: _439  and  _441
REMARK  177  A    between atoms: _441  and  _442
REMARK  178  A    between atoms: _441  and  _444
REMARK  179  A    between atoms: _444  and  _445
REMARK  180  A    between atoms: _448  and  _450
REMARK  181  A    between atoms: _450  and  _451
REMARK  182  A    between atoms: _450  and  _453
REMARK  183  A    between atoms: _453  and  _454
REMARK  184  A    between atoms: _457  and  _459
REMARK  185  A    between atoms: _459  and  _460
REMARK  186  A    between atoms: _459  and  _462
REMARK  187  A    between atoms: _462  and  _463
REMARK  188  A    between atoms: _463  and  _464
REMARK  189  A    between atoms: _464  and  _465
REMARK  190  A    between atoms: _465  and  _466
REMARK  191  A    between atoms: _470  and  _472
REMARK  192  A    between atoms: _472  and  _473
REMARK  193  A    between atoms: _472  and  _475
REMARK  194  A    between atoms: _475  and  _476
REMARK  195  A    between atoms: _479  and  _481
REMARK  196  A    between atoms: _481  and  _482
REMARK  197  A    between atoms: _481  and  _484
REMARK  198  A    between atoms: _484  and  _485
REMARK  199  A    between atoms: _488  and  _490
REMARK  200  A    between atoms: _490  and  _491
REMARK  201  A    between atoms: _490  and  _493
REMARK  202  A    between atoms: _493  and  _494
REMARK  203  A    between atoms: _498  and  _499
REMARK  204  A    between atoms: _504  and  _506
REMARK  205  A    between atoms: _506  and  _507
REMARK  206  A    between atoms: _506  and  _509
REMARK  207  A    between atoms: _509  and  _510
REMARK  208  A    between atoms: _515  and  _517
REMARK  209  A    between atoms: _517  and  _518
REMARK  210  A    between atoms: _517  and  _520
REMARK  211  A    between atoms: _520  and  _521
REMARK  212  A    between atoms: _521  and  _522
REMARK  213  A    between atoms: _522  and  _523
REMARK  214  A    between atoms: _523  and  _524
REMARK  215  A    between atoms: _528  and  _530
REMARK  216  A    between atoms: _530  and  _531
REMARK  217  A    between atoms: _530  and  _533
REMARK  218  A    between atoms: _533  and  _534
REMARK  219  A    between atoms: _534  and  _535
REMARK  220  A    between atoms: _538  and  _540
REMARK  221  A    between atoms: _540  and  _541
REMARK  222  A    between atoms: _540  and  _543
REMARK  223  A    between atoms: _543  and  _544
REMARK  224  A    between atoms: _547  and  _549
REMARK  225  A    between atoms: _549  and  _550
REMARK  226  A    between atoms: _549  and  _552
REMARK  227  A    between atoms: _552  and  _553
REMARK  228  A    between atoms: _553  and  _554
REMARK  229  A    between atoms: _554  and  _555
REMARK  230  A    between atoms: _564  and  _566
REMARK  231  A    between atoms: _566  and  _567
REMARK  232  A    between atoms: _566  and  _569
REMARK  233  A    between atoms: _569  and  _570
REMARK  234  A    between atoms: _572  and  _574
REMARK  235  A    between atoms: _574  and  _575
REMARK  236  A    between atoms: _574  and  _577
REMARK  237  A    between atoms: _577  and  _578
REMARK  238  A    between atoms: _584  and  _586
REMARK  239  A    between atoms: _586  and  _587
REMARK  240  A    between atoms: _590  and  _592
REMARK  241  A    between atoms: _592  and  _593
REMARK  242  A    between atoms: _592  and  _595
REMARK  243  A    between atoms: _595  and  _596
REMARK  244  A    between atoms: _596  and  _597
REMARK  245  A    between atoms: _600  and  _602
REMARK  246  A    between atoms: _602  and  _603
REMARK  247  A    between atoms: _602  and  _605
REMARK  248  A    between atoms: _605  and  _606
REMARK                            x       y       z     vdW  Elec       q    Type
REMARK                         _______ _______ _______ _____ _____    ______ ____
ROOT
ATOM      1  O   HOH     1       3.976  35.582  -7.551  0.00  0.00    +0.000 OA
ENDROOT
TORSDOF 0
REMARK  Name = ../refined-set-2016/4pzv/4pzv_pocket.pdb
REMARK  248 active torsions:
REMARK  status: ('A' for Active; 'I' for Inactive)
REMARK    1  A    between atoms: _1  and  _3
REMARK    2  A    between atoms: _3  and  _4
REMARK    3  A    between atoms: _3  and  _6
REMARK    4  A    between atoms: _6  and  _7
REMARK    5  A    between atoms: _10  and  _12
REMARK    6  A    between atoms: _12  and  _13
REMARK    7  A    between atoms: _12  and  _15
REMARK    8  A    between atoms: _15  and  _16
REMARK    9  A    between atoms: _19  and  _21
REMARK   10  A    between atoms: _21  and  _22
REMARK   11  A    between atoms: _24  and  _26
REMARK   12  A    between atoms: _26  and  _27
REMARK   13  A    between atoms: _26  and  _29
REMARK   14  A    between atoms: _29  and  _30
REMARK   15  A    between atoms: _33  and  _35
REMARK   16  A    between atoms: _35  and  _36
REMARK   17  A    between atoms: _38  and  _40
REMARK   18  A    between atoms: _40  and  _41
REMARK   19  A    between atoms: _40  and  _43
REMARK   20  A    between atoms: _43  and  _44
REMARK   21  A    between atoms: _47  and  _49
REMARK   22  A    between atoms: _49  and  _50
REMARK   23  A    between atoms: _49  and  _52
REMARK   24  A    between atoms: _52  and  _53
REMARK   25  A    between atoms: _58  and  _60
REMARK   26  A    between atoms: _60  and  _61
REMARK   27  A    between atoms: _60  and  _63
REMARK   28  A    between atoms: _63  and  _64
REMARK   29  A    between atoms: _69  and  _70
REMARK   30  A    between atoms: _72  and  _74
REMARK   31  A    between atoms: _74  and  _75
REMARK   32  A    between atoms: _74  and  _77
REMARK   33  A    between atoms: _77  and  _78
REMARK   34  A    between atoms: _80  and  _82
REMARK   35  A    between atoms: _82  and  _83
REMARK   36  A    between atoms: _82  and  _85
REMARK   37  A    between atoms: _85  and  _86
REMARK   38  A    between atoms: _88  and  _90
REMARK   39  A    between atoms: _90  and  _91
REMARK   40  A    between atoms: _90  and  _93
REMARK   41  A    between atoms: _93  and  _94
REMARK   42  A    between atoms: _94  and  _95
REMARK   43  A    between atoms: _95  and  _96
REMARK   44  A    between atoms: _96  and  _97
REMARK   45  A    between atoms: _101  and  _103
REMARK   46  A    between atoms: _103  and  _104
REMARK   47  A    between atoms: _107  and  _109
REMARK   48  A    between atoms: _109  and  _110
REMARK   49  A    between atoms: _109  and  _112
REMARK   50  A    between atoms: _115  and  _117
REMARK   51  A    between atoms: _117  and  _118
REMARK   52  A    between atoms: _117  and  _120
REMARK   53  A    between atoms: _120  and  _121
REMARK   54  A    between atoms: _124  and  _126
REMARK   55  A    between atoms: _126  and  _127
REMARK   56  A    between atoms: _126  and  _129
REMARK   57  A    between atoms: _129  and  _130
REMARK   58  A    between atoms: _130  and  _131
REMARK   59  A    between atoms: _131  and  _132
REMARK   60  A    between atoms: _132  and  _133
REMARK   61  A    between atoms: _137  and  _139
REMARK   62  A    between atoms: _139  and  _140
REMARK   63  A    between atoms: _139  and  _142
REMARK   64  A    between atoms: _142  and  _143
REMARK   65  A    between atoms: _153  and  _155
REMARK   66  A    between atoms: _155  and  _156
REMARK   67  A    between atoms: _155  and  _158
REMARK   68  A    between atoms: _158  and  _159
REMARK   69  A    between atoms: _162  and  _164
REMARK   70  A    between atoms: _164  and  _165
REMARK   71  A    between atoms: _164  and  _167
REMARK   72  A    between atoms: _167  and  _168
REMARK   73  A    between atoms: _168  and  _169
REMARK   74  A    between atoms: _169  and  _170
REMARK   75  A    between atoms: _179  and  _181
REMARK   76  A    between atoms: _181  and  _182
REMARK   77  A    between atoms: _181  and  _184
REMARK   78  A    between atoms: _184  and  _185
REMARK   79  A    between atoms: _191  and  _193
REMARK   80  A    between atoms: _193  and  _194
REMARK   81  A    between atoms: _193  and  _196
REMARK   82  A    between atoms: _196  and  _197
REMARK   83  A    between atoms: _200  and  _202
REMARK   84  A    between atoms: _202  and  _203
REMARK   85  A    between atoms: _202  and  _205
REMARK   86  A    between atoms: _205  and  _206
REMARK   87  A    between atoms: _211  and  _213
REMARK   88  A    between atoms: _213  and  _214
REMARK   89  A    between atoms: _213  and  _216
REMARK   90  A    between atoms: _216  and  _217
REMARK   91  A    between atoms: _221  and  _222
REMARK   92  A    between atoms: _227  and  _229
REMARK   93  A    between atoms: _229  and  _230
REMARK   94  A    between atoms: _229  and  _232
REMARK   95  A    between atoms: _232  and  _233
REMARK   96  A    between atoms: _236  and  _238
REMARK   97  A    between atoms: _238  and  _239
REMARK   98  A    between atoms: _238  and  _241
REMARK   99  A    between atoms: _241  and  _242
REMARK  100  A    between atoms: _245  and  _247
REMARK  101  A    between atoms: _247  and  _248
REMARK  102  A    between atoms: _247  and  _250
REMARK  103  A    between atoms: _250  and  _251
REMARK  104  A    between atoms: _254  and  _256
REMARK  105  A    between atoms: _256  and  _257
REMARK  106  A    between atoms: _256  and  _259
REMARK  107  A    between atoms: _259  and  _260
REMARK  108  A    between atoms: _260  and  _261
REMARK  109  A    between atoms: _261  and  _262
REMARK  110  A    between atoms: _262  and  _263
REMARK  111  A    between atoms: _267  and  _269
REMARK  112  A    between atoms: _269  and  _270
REMARK  113  A    between atoms: _269  and  _272
REMARK  114  A    between atoms: _272  and  _273
REMARK  115  A    between atoms: _273  and  _274
REMARK  116  A    between atoms: _277  and  _279
REMARK  117  A    between atoms: _279  and  _280
REMARK  118  A    between atoms: _279  and  _282
REMARK  119  A    between atoms: _282  and  _283
REMARK  120  A    between atoms: _283  and  _284
REMARK  121  A    between atoms: _284  and  _285
REMARK  122  A    between atoms: _294  and  _296
REMARK  123  A    between atoms: _296  and  _297
REMARK  124  A    between atoms: _296  and  _299
REMARK  125  A    between atoms: _299  and  _300
REMARK  126  A    between atoms: _303  and  _305
REMARK  127  A    between atoms: _305  and  _306
REMARK  128  A    between atoms: _310  and  _311
REMARK  129  A    between atoms: _316  and  _318
REMARK  130  A    between atoms: _318  and  _319
REMARK  131  A    between atoms: _322  and  _324
REMARK  132  A    between atoms: _324  and  _325
REMARK  133  A    between atoms: _324  and  _327
REMARK  134  A    between atoms: _327  and  _328
REMARK  135  A    between atoms: _338  and  _340
REMARK  136  A    between atoms: _340  and  _341
REMARK  137  A    between atoms: _340  and  _343
REMARK  138  A    between atoms: _343  and  _344
REMARK  139  A    between atoms: _347  and  _348
REMARK  140  A    between atoms: _353  and  _355
REMARK  141  A    between atoms: _355  and  _356
REMARK  142  A    between atoms: _355  and  _358
REMARK  143  A    between atoms: _358  and  _359
REMARK  144  A    between atoms: _359  and  _360
REMARK  145  A    between atoms: _360  and  _361
REMARK  146  A    between atoms: _370  and  _372
REMARK  147  A    between atoms: _372  and  _373
REMARK  148  A    between atoms: _372  and  _375
REMARK  149  A    between atoms: _375  and  _376
REMARK  150  A    between atoms: _379  and  _381
REMARK  151  A    between atoms: _381  and  _382
REMARK  152  A    between atoms: _381  and  _384
REMARK  153  A    between atoms: _384  and  _385
REMARK  154  A    between atoms: _388  and  _390
REMARK  155  A    between atoms: _390  and  _391
REMARK  156  A    between atoms: _390  and  _393
REMARK  157  A    between atoms: _393  and  _394
REMARK  158  A    between atoms: _397  and  _399
REMARK  159  A    between atoms: _399  and  _400
REMARK  160  A    between atoms: _399  and  _402
REMARK  161  A    between atoms: _402  and  _403
REMARK  162  A    between atoms: _406  and  _408
REMARK  163  A    between atoms: _408  and  _409
REMARK  164  A    between atoms: _408  and  _411
REMARK  165  A    between atoms: _411  and  _412
REMARK  166  A    between atoms: _415  and  _417
REMARK  167  A    between atoms: _417  and  _418
REMARK  168  A    between atoms: _417  and  _420
REMARK  169  A    between atoms: _420  and  _421
REMARK  170  A    between atoms: _424  and  _426
REMARK  171  A    between atoms: _426  and  _427
REMARK  172  A    between atoms: _430  and  _432
REMARK  173  A    between atoms: _432  and  _433
REMARK  174  A    between atoms: _432  and  _435
REMARK  175  A    between atoms: _435  and  _436
REMARK  176  A    between atoms: _439  and  _441
REMARK  177  A    between atoms: _441  and  _442
REMARK  178  A    between atoms: _441  and  _444
REMARK  179  A    between atoms: _444  and  _445
REMARK  180  A    between atoms: _448  and  _450
REMARK  181  A    between atoms: _450  and  _451
REMARK  182  A    between atoms: _450  and  _453
REMARK  183  A    between atoms: _453  and  _454
REMARK  184  A    between atoms: _457  and  _459
REMARK  185  A    between atoms: _459  and  _460
REMARK  186  A    between atoms: _459  and  _462
REMARK  187  A    between atoms: _462  and  _463
REMARK  188  A    between atoms: _463  and  _464
REMARK  189  A    between atoms: _464  and  _465
REMARK  190  A    between atoms: _465  and  _466
REMARK  191  A    between atoms: _470  and  _472
REMARK  192  A    between atoms: _472  and  _473
REMARK  193  A    between atoms: _472  and  _475
REMARK  194  A    between atoms: _475  and  _476
REMARK  195  A    between atoms: _479  and  _481
REMARK  196  A    between atoms: _481  and  _482
REMARK  197  A    between atoms: _481  and  _484
REMARK  198  A    between atoms: _484  and  _485
REMARK  199  A    between atoms: _488  and  _490
REMARK  200  A    between atoms: _490  and  _491
REMARK  201  A    between atoms: _490  and  _493
REMARK  202  A    between atoms: _493  and  _494
REMARK  203  A    between atoms: _498  and  _499
REMARK  204  A    between atoms: _504  and  _506
REMARK  205  A    between atoms: _506  and  _507
REMARK  206  A    between atoms: _506  and  _509
REMARK  207  A    between atoms: _509  and  _510
REMARK  208  A    between atoms: _515  and  _517
REMARK  209  A    between atoms: _517  and  _518
REMARK  210  A    between atoms: _517  and  _520
REMARK  211  A    between atoms: _520  and  _521
REMARK  212  A    between atoms: _521  and  _522
REMARK  213  A    between atoms: _522  and  _523
REMARK  214  A    between atoms: _523  and  _524
REMARK  215  A    between atoms: _528  and  _530
REMARK  216  A    between atoms: _530  and  _531
REMARK  217  A    between atoms: _530  and  _533
REMARK  218  A    between atoms: _533  and  _534
REMARK  219  A    between atoms: _534  and  _535
REMARK  220  A    between atoms: _538  and  _540
REMARK  221  A    between atoms: _540  and  _541
REMARK  222  A    between atoms: _540  and  _543
REMARK  223  A    between atoms: _543  and  _544
REMARK  224  A    between atoms: _547  and  _549
REMARK  225  A    between atoms: _549  and  _550
REMARK  226  A    between atoms: _549  and  _552
REMARK  227  A    between atoms: _552  and  _553
REMARK  228  A    between atoms: _553  and  _554
REMARK  229  A    between atoms: _554  and  _555
REMARK  230  A    between atoms: _564  and  _566
REMARK  231  A    between atoms: _566  and  _567
REMARK  232  A    between atoms: _566  and  _569
REMARK  233  A    between atoms: _569  and  _570
REMARK  234  A    between atoms: _572  and  _574
REMARK  235  A    between atoms: _574  and  _575
REMARK  236  A    between atoms: _574  and  _577
REMARK  237  A    between atoms: _577  and  _578
REMARK  238  A    between atoms: _584  and  _586
REMARK  239  A    between atoms: _586  and  _587
REMARK  240  A    between atoms: _590  and  _592
REMARK  241  A    between atoms: _592  and  _593
REMARK  242  A    between atoms: _592  and  _595
REMARK  243  A    between atoms: _595  and  _596
REMARK  244  A    between atoms: _596  and  _597
REMARK  245  A    between atoms: _600  and  _602
REMARK  246  A    between atoms: _602  and  _603
REMARK  247  A    between atoms: _602  and  _605
REMARK  248  A    between atoms: _605  and  _606
REMARK                            x       y       z     vdW  Elec       q    Type
REMARK                         _______ _______ _______ _____ _____    ______ ____
ROOT
ATOM      1  O   HOH     1      -2.542  34.114  -9.787  0.00  0.00    +0.000 OA
ENDROOT
TORSDOF 0
REMARK  Name = ../refined-set-2016/4pzv/4pzv_pocket.pdb
REMARK  248 active torsions:
REMARK  status: ('A' for Active; 'I' for Inactive)
REMARK    1  A    between atoms: _1  and  _3
REMARK    2  A    between atoms: _3  and  _4
REMARK    3  A    between atoms: _3  and  _6
REMARK    4  A    between atoms: _6  and  _7
REMARK    5  A    between atoms: _10  and  _12
REMARK    6  A    between atoms: _12  and  _13
REMARK    7  A    between atoms: _12  and  _15
REMARK    8  A    between atoms: _15  and  _16
REMARK    9  A    between atoms: _19  and  _21
REMARK   10  A    between atoms: _21  and  _22
REMARK   11  A    between atoms: _24  and  _26
REMARK   12  A    between atoms: _26  and  _27
REMARK   13  A    between atoms: _26  and  _29
REMARK   14  A    between atoms: _29  and  _30
REMARK   15  A    between atoms: _33  and  _35
REMARK   16  A    between atoms: _35  and  _36
REMARK   17  A    between atoms: _38  and  _40
REMARK   18  A    between atoms: _40  and  _41
REMARK   19  A    between atoms: _40  and  _43
REMARK   20  A    between atoms: _43  and  _44
REMARK   21  A    between atoms: _47  and  _49
REMARK   22  A    between atoms: _49  and  _50
REMARK   23  A    between atoms: _49  and  _52
REMARK   24  A    between atoms: _52  and  _53
REMARK   25  A    between atoms: _58  and  _60
REMARK   26  A    between atoms: _60  and  _61
REMARK   27  A    between atoms: _60  and  _63
REMARK   28  A    between atoms: _63  and  _64
REMARK   29  A    between atoms: _69  and  _70
REMARK   30  A    between atoms: _72  and  _74
REMARK   31  A    between atoms: _74  and  _75
REMARK   32  A    between atoms: _74  and  _77
REMARK   33  A    between atoms: _77  and  _78
REMARK   34  A    between atoms: _80  and  _82
REMARK   35  A    between atoms: _82  and  _83
REMARK   36  A    between atoms: _82  and  _85
REMARK   37  A    between atoms: _85  and  _86
REMARK   38  A    between atoms: _88  and  _90
REMARK   39  A    between atoms: _90  and  _91
REMARK   40  A    between atoms: _90  and  _93
REMARK   41  A    between atoms: _93  and  _94
REMARK   42  A    between atoms: _94  and  _95
REMARK   43  A    between atoms: _95  and  _96
REMARK   44  A    between atoms: _96  and  _97
REMARK   45  A    between atoms: _101  and  _103
REMARK   46  A    between atoms: _103  and  _104
REMARK   47  A    between atoms: _107  and  _109
REMARK   48  A    between atoms: _109  and  _110
REMARK   49  A    between atoms: _109  and  _112
REMARK   50  A    between atoms: _115  and  _117
REMARK   51  A    between atoms: _117  and  _118
REMARK   52  A    between atoms: _117  and  _120
REMARK   53  A    between atoms: _120  and  _121
REMARK   54  A    between atoms: _124  and  _126
REMARK   55  A    between atoms: _126  and  _127
REMARK   56  A    between atoms: _126  and  _129
REMARK   57  A    between atoms: _129  and  _130
REMARK   58  A    between atoms: _130  and  _131
REMARK   59  A    between atoms: _131  and  _132
REMARK   60  A    between atoms: _132  and  _133
REMARK   61  A    between atoms: _137  and  _139
REMARK   62  A    between atoms: _139  and  _140
REMARK   63  A    between atoms: _139  and  _142
REMARK   64  A    between atoms: _142  and  _143
REMARK   65  A    between atoms: _153  and  _155
REMARK   66  A    between atoms: _155  and  _156
REMARK   67  A    between atoms: _155  and  _158
REMARK   68  A    between atoms: _158  and  _159
REMARK   69  A    between atoms: _162  and  _164
REMARK   70  A    between atoms: _164  and  _165
REMARK   71  A    between atoms: _164  and  _167
REMARK   72  A    between atoms: _167  and  _168
REMARK   73  A    between atoms: _168  and  _169
REMARK   74  A    between atoms: _169  and  _170
REMARK   75  A    between atoms: _179  and  _181
REMARK   76  A    between atoms: _181  and  _182
REMARK   77  A    between atoms: _181  and  _184
REMARK   78  A    between atoms: _184  and  _185
REMARK   79  A    between atoms: _191  and  _193
REMARK   80  A    between atoms: _193  and  _194
REMARK   81  A    between atoms: _193  and  _196
REMARK   82  A    between atoms: _196  and  _197
REMARK   83  A    between atoms: _200  and  _202
REMARK   84  A    between atoms: _202  and  _203
REMARK   85  A    between atoms: _202  and  _205
REMARK   86  A    between atoms: _205  and  _206
REMARK   87  A    between atoms: _211  and  _213
REMARK   88  A    between atoms: _213  and  _214
REMARK   89  A    between atoms: _213  and  _216
REMARK   90  A    between atoms: _216  and  _217
REMARK   91  A    between atoms: _221  and  _222
REMARK   92  A    between atoms: _227  and  _229
REMARK   93  A    between atoms: _229  and  _230
REMARK   94  A    between atoms: _229  and  _232
REMARK   95  A    between atoms: _232  and  _233
REMARK   96  A    between atoms: _236  and  _238
REMARK   97  A    between atoms: _238  and  _239
REMARK   98  A    between atoms: _238  and  _241
REMARK   99  A    between atoms: _241  and  _242
REMARK  100  A    between atoms: _245  and  _247
REMARK  101  A    between atoms: _247  and  _248
REMARK  102  A    between atoms: _247  and  _250
REMARK  103  A    between atoms: _250  and  _251
REMARK  104  A    between atoms: _254  and  _256
REMARK  105  A    between atoms: _256  and  _257
REMARK  106  A    between atoms: _256  and  _259
REMARK  107  A    between atoms: _259  and  _260
REMARK  108  A    between atoms: _260  and  _261
REMARK  109  A    between atoms: _261  and  _262
REMARK  110  A    between atoms: _262  and  _263
REMARK  111  A    between atoms: _267  and  _269
REMARK  112  A    between atoms: _269  and  _270
REMARK  113  A    between atoms: _269  and  _272
REMARK  114  A    between atoms: _272  and  _273
REMARK  115  A    between atoms: _273  and  _274
REMARK  116  A    between atoms: _277  and  _279
REMARK  117  A    between atoms: _279  and  _280
REMARK  118  A    between atoms: _279  and  _282
REMARK  119  A    between atoms: _282  and  _283
REMARK  120  A    between atoms: _283  and  _284
REMARK  121  A    between atoms: _284  and  _285
REMARK  122  A    between atoms: _294  and  _296
REMARK  123  A    between atoms: _296  and  _297
REMARK  124  A    between atoms: _296  and  _299
REMARK  125  A    between atoms: _299  and  _300
REMARK  126  A    between atoms: _303  and  _305
REMARK  127  A    between atoms: _305  and  _306
REMARK  128  A    between atoms: _310  and  _311
REMARK  129  A    between atoms: _316  and  _318
REMARK  130  A    between atoms: _318  and  _319
REMARK  131  A    between atoms: _322  and  _324
REMARK  132  A    between atoms: _324  and  _325
REMARK  133  A    between atoms: _324  and  _327
REMARK  134  A    between atoms: _327  and  _328
REMARK  135  A    between atoms: _338  and  _340
REMARK  136  A    between atoms: _340  and  _341
REMARK  137  A    between atoms: _340  and  _343
REMARK  138  A    between atoms: _343  and  _344
REMARK  139  A    between atoms: _347  and  _348
REMARK  140  A    between atoms: _353  and  _355
REMARK  141  A    between atoms: _355  and  _356
REMARK  142  A    between atoms: _355  and  _358
REMARK  143  A    between atoms: _358  and  _359
REMARK  144  A    between atoms: _359  and  _360
REMARK  145  A    between atoms: _360  and  _361
REMARK  146  A    between atoms: _370  and  _372
REMARK  147  A    between atoms: _372  and  _373
REMARK  148  A    between atoms: _372  and  _375
REMARK  149  A    between atoms: _375  and  _376
REMARK  150  A    between atoms: _379  and  _381
REMARK  151  A    between atoms: _381  and  _382
REMARK  152  A    between atoms: _381  and  _384
REMARK  153  A    between atoms: _384  and  _385
REMARK  154  A    between atoms: _388  and  _390
REMARK  155  A    between atoms: _390  and  _391
REMARK  156  A    between atoms: _390  and  _393
REMARK  157  A    between atoms: _393  and  _394
REMARK  158  A    between atoms: _397  and  _399
REMARK  159  A    between atoms: _399  and  _400
REMARK  160  A    between atoms: _399  and  _402
REMARK  161  A    between atoms: _402  and  _403
REMARK  162  A    between atoms: _406  and  _408
REMARK  163  A    between atoms: _408  and  _409
REMARK  164  A    between atoms: _408  and  _411
REMARK  165  A    between atoms: _411  and  _412
REMARK  166  A    between atoms: _415  and  _417
REMARK  167  A    between atoms: _417  and  _418
REMARK  168  A    between atoms: _417  and  _420
REMARK  169  A    between atoms: _420  and  _421
REMARK  170  A    between atoms: _424  and  _426
REMARK  171  A    between atoms: _426  and  _427
REMARK  172  A    between atoms: _430  and  _432
REMARK  173  A    between atoms: _432  and  _433
REMARK  174  A    between atoms: _432  and  _435
REMARK  175  A    between atoms: _435  and  _436
REMARK  176  A    between atoms: _439  and  _441
REMARK  177  A    between atoms: _441  and  _442
REMARK  178  A    between atoms: _441  and  _444
REMARK  179  A    between atoms: _444  and  _445
REMARK  180  A    between atoms: _448  and  _450
REMARK  181  A    between atoms: _450  and  _451
REMARK  182  A    between atoms: _450  and  _453
REMARK  183  A    between atoms: _453  and  _454
REMARK  184  A    between atoms: _457  and  _459
REMARK  185  A    between atoms: _459  and  _460
REMARK  186  A    between atoms: _459  and  _462
REMARK  187  A    between atoms: _462  and  _463
REMARK  188  A    between atoms: _463  and  _464
REMARK  189  A    between atoms: _464  and  _465
REMARK  190  A    between atoms: _465  and  _466
REMARK  191  A    between atoms: _470  and  _472
REMARK  192  A    between atoms: _472  and  _473
REMARK  193  A    between atoms: _472  and  _475
REMARK  194  A    between atoms: _475  and  _476
REMARK  195  A    between atoms: _479  and  _481
REMARK  196  A    between atoms: _481  and  _482
REMARK  197  A    between atoms: _481  and  _484
REMARK  198  A    between atoms: _484  and  _485
REMARK  199  A    between atoms: _488  and  _490
REMARK  200  A    between atoms: _490  and  _491
REMARK  201  A    between atoms: _490  and  _493
REMARK  202  A    between atoms: _493  and  _494
REMARK  203  A    between atoms: _498  and  _499
REMARK  204  A    between atoms: _504  and  _506
REMARK  205  A    between atoms: _506  and  _507
REMARK  206  A    between atoms: _506  and  _509
REMARK  207  A    between atoms: _509  and  _510
REMARK  208  A    between atoms: _515  and  _517
REMARK  209  A    between atoms: _517  and  _518
REMARK  210  A    between atoms: _517  and  _520
REMARK  211  A    between atoms: _520  and  _521
REMARK  212  A    between atoms: _521  and  _522
REMARK  213  A    between atoms: _522  and  _523
REMARK  214  A    between atoms: _523  and  _524
REMARK  215  A    between atoms: _528  and  _530
REMARK  216  A    between atoms: _530  and  _531
REMARK  217  A    between atoms: _530  and  _533
REMARK  218  A    between atoms: _533  and  _534
REMARK  219  A    between atoms: _534  and  _535
REMARK  220  A    between atoms: _538  and  _540
REMARK  221  A    between atoms: _540  and  _541
REMARK  222  A    between atoms: _540  and  _543
REMARK  223  A    between atoms: _543  and  _544
REMARK  224  A    between atoms: _547  and  _549
REMARK  225  A    between atoms: _549  and  _550
REMARK  226  A    between atoms: _549  and  _552
REMARK  227  A    between atoms: _552  and  _553
REMARK  228  A    between atoms: _553  and  _554
REMARK  229  A    between atoms: _554  and  _555
REMARK  230  A    between atoms: _564  and  _566
REMARK  231  A    between atoms: _566  and  _567
REMARK  232  A    between atoms: _566  and  _569
REMARK  233  A    between atoms: _569  and  _570
REMARK  234  A    between atoms: _572  and  _574
REMARK  235  A    between atoms: _574  and  _575
REMARK  236  A    between atoms: _574  and  _577
REMARK  237  A    between atoms: _577  and  _578
REMARK  238  A    between atoms: _584  and  _586
REMARK  239  A    between atoms: _586  and  _587
REMARK  240  A    between atoms: _590  and  _592
REMARK  241  A    between atoms: _592  and  _593
REMARK  242  A    between atoms: _592  and  _595
REMARK  243  A    between atoms: _595  and  _596
REMARK  244  A    between atoms: _596  and  _597
REMARK  245  A    between atoms: _600  and  _602
REMARK  246  A    between atoms: _602  and  _603
REMARK  247  A    between atoms: _602  and  _605
REMARK  248  A    between atoms: _605  and  _606
REMARK                            x       y       z     vdW  Elec       q    Type
REMARK                         _______ _______ _______ _____ _____    ______ ____
ROOT
ATOM      1  O   HOH     1       5.128  29.987 -14.415  0.00  0.00    +0.000 OA
ENDROOT
TORSDOF 0
REMARK  Name = ../refined-set-2016/4pzv/4pzv_pocket.pdb
REMARK  248 active torsions:
REMARK  status: ('A' for Active; 'I' for Inactive)
REMARK    1  A    between atoms: _1  and  _3
REMARK    2  A    between atoms: _3  and  _4
REMARK    3  A    between atoms: _3  and  _6
REMARK    4  A    between atoms: _6  and  _7
REMARK    5  A    between atoms: _10  and  _12
REMARK    6  A    between atoms: _12  and  _13
REMARK    7  A    between atoms: _12  and  _15
REMARK    8  A    between atoms: _15  and  _16
REMARK    9  A    between atoms: _19  and  _21
REMARK   10  A    between atoms: _21  and  _22
REMARK   11  A    between atoms: _24  and  _26
REMARK   12  A    between atoms: _26  and  _27
REMARK   13  A    between atoms: _26  and  _29
REMARK   14  A    between atoms: _29  and  _30
REMARK   15  A    between atoms: _33  and  _35
REMARK   16  A    between atoms: _35  and  _36
REMARK   17  A    between atoms: _38  and  _40
REMARK   18  A    between atoms: _40  and  _41
REMARK   19  A    between atoms: _40  and  _43
REMARK   20  A    between atoms: _43  and  _44
REMARK   21  A    between atoms: _47  and  _49
REMARK   22  A    between atoms: _49  and  _50
REMARK   23  A    between atoms: _49  and  _52
REMARK   24  A    between atoms: _52  and  _53
REMARK   25  A    between atoms: _58  and  _60
REMARK   26  A    between atoms: _60  and  _61
REMARK   27  A    between atoms: _60  and  _63
REMARK   28  A    between atoms: _63  and  _64
REMARK   29  A    between atoms: _69  and  _70
REMARK   30  A    between atoms: _72  and  _74
REMARK   31  A    between atoms: _74  and  _75
REMARK   32  A    between atoms: _74  and  _77
REMARK   33  A    between atoms: _77  and  _78
REMARK   34  A    between atoms: _80  and  _82
REMARK   35  A    between atoms: _82  and  _83
REMARK   36  A    between atoms: _82  and  _85
REMARK   37  A    between atoms: _85  and  _86
REMARK   38  A    between atoms: _88  and  _90
REMARK   39  A    between atoms: _90  and  _91
REMARK   40  A    between atoms: _90  and  _93
REMARK   41  A    between atoms: _93  and  _94
REMARK   42  A    between atoms: _94  and  _95
REMARK   43  A    between atoms: _95  and  _96
REMARK   44  A    between atoms: _96  and  _97
REMARK   45  A    between atoms: _101  and  _103
REMARK   46  A    between atoms: _103  and  _104
REMARK   47  A    between atoms: _107  and  _109
REMARK   48  A    between atoms: _109  and  _110
REMARK   49  A    between atoms: _109  and  _112
REMARK   50  A    between atoms: _115  and  _117
REMARK   51  A    between atoms: _117  and  _118
REMARK   52  A    between atoms: _117  and  _120
REMARK   53  A    between atoms: _120  and  _121
REMARK   54  A    between atoms: _124  and  _126
REMARK   55  A    between atoms: _126  and  _127
REMARK   56  A    between atoms: _126  and  _129
REMARK   57  A    between atoms: _129  and  _130
REMARK   58  A    between atoms: _130  and  _131
REMARK   59  A    between atoms: _131  and  _132
REMARK   60  A    between atoms: _132  and  _133
REMARK   61  A    between atoms: _137  and  _139
REMARK   62  A    between atoms: _139  and  _140
REMARK   63  A    between atoms: _139  and  _142
REMARK   64  A    between atoms: _142  and  _143
REMARK   65  A    between atoms: _153  and  _155
REMARK   66  A    between atoms: _155  and  _156
REMARK   67  A    between atoms: _155  and  _158
REMARK   68  A    between atoms: _158  and  _159
REMARK   69  A    between atoms: _162  and  _164
REMARK   70  A    between atoms: _164  and  _165
REMARK   71  A    between atoms: _164  and  _167
REMARK   72  A    between atoms: _167  and  _168
REMARK   73  A    between atoms: _168  and  _169
REMARK   74  A    between atoms: _169  and  _170
REMARK   75  A    between atoms: _179  and  _181
REMARK   76  A    between atoms: _181  and  _182
REMARK   77  A    between atoms: _181  and  _184
REMARK   78  A    between atoms: _184  and  _185
REMARK   79  A    between atoms: _191  and  _193
REMARK   80  A    between atoms: _193  and  _194
REMARK   81  A    between atoms: _193  and  _196
REMARK   82  A    between atoms: _196  and  _197
REMARK   83  A    between atoms: _200  and  _202
REMARK   84  A    between atoms: _202  and  _203
REMARK   85  A    between atoms: _202  and  _205
REMARK   86  A    between atoms: _205  and  _206
REMARK   87  A    between atoms: _211  and  _213
REMARK   88  A    between atoms: _213  and  _214
REMARK   89  A    between atoms: _213  and  _216
REMARK   90  A    between atoms: _216  and  _217
REMARK   91  A    between atoms: _221  and  _222
REMARK   92  A    between atoms: _227  and  _229
REMARK   93  A    between atoms: _229  and  _230
REMARK   94  A    between atoms: _229  and  _232
REMARK   95  A    between atoms: _232  and  _233
REMARK   96  A    between atoms: _236  and  _238
REMARK   97  A    between atoms: _238  and  _239
REMARK   98  A    between atoms: _238  and  _241
REMARK   99  A    between atoms: _241  and  _242
REMARK  100  A    between atoms: _245  and  _247
REMARK  101  A    between atoms: _247  and  _248
REMARK  102  A    between atoms: _247  and  _250
REMARK  103  A    between atoms: _250  and  _251
REMARK  104  A    between atoms: _254  and  _256
REMARK  105  A    between atoms: _256  and  _257
REMARK  106  A    between atoms: _256  and  _259
REMARK  107  A    between atoms: _259  and  _260
REMARK  108  A    between atoms: _260  and  _261
REMARK  109  A    between atoms: _261  and  _262
REMARK  110  A    between atoms: _262  and  _263
REMARK  111  A    between atoms: _267  and  _269
REMARK  112  A    between atoms: _269  and  _270
REMARK  113  A    between atoms: _269  and  _272
REMARK  114  A    between atoms: _272  and  _273
REMARK  115  A    between atoms: _273  and  _274
REMARK  116  A    between atoms: _277  and  _279
REMARK  117  A    between atoms: _279  and  _280
REMARK  118  A    between atoms: _279  and  _282
REMARK  119  A    between atoms: _282  and  _283
REMARK  120  A    between atoms: _283  and  _284
REMARK  121  A    between atoms: _284  and  _285
REMARK  122  A    between atoms: _294  and  _296
REMARK  123  A    between atoms: _296  and  _297
REMARK  124  A    between atoms: _296  and  _299
REMARK  125  A    between atoms: _299  and  _300
REMARK  126  A    between atoms: _303  and  _305
REMARK  127  A    between atoms: _305  and  _306
REMARK  128  A    between atoms: _310  and  _311
REMARK  129  A    between atoms: _316  and  _318
REMARK  130  A    between atoms: _318  and  _319
REMARK  131  A    between atoms: _322  and  _324
REMARK  132  A    between atoms: _324  and  _325
REMARK  133  A    between atoms: _324  and  _327
REMARK  134  A    between atoms: _327  and  _328
REMARK  135  A    between atoms: _338  and  _340
REMARK  136  A    between atoms: _340  and  _341
REMARK  137  A    between atoms: _340  and  _343
REMARK  138  A    between atoms: _343  and  _344
REMARK  139  A    between atoms: _347  and  _348
REMARK  140  A    between atoms: _353  and  _355
REMARK  141  A    between atoms: _355  and  _356
REMARK  142  A    between atoms: _355  and  _358
REMARK  143  A    between atoms: _358  and  _359
REMARK  144  A    between atoms: _359  and  _360
REMARK  145  A    between atoms: _360  and  _361
REMARK  146  A    between atoms: _370  and  _372
REMARK  147  A    between atoms: _372  and  _373
REMARK  148  A    between atoms: _372  and  _375
REMARK  149  A    between atoms: _375  and  _376
REMARK  150  A    between atoms: _379  and  _381
REMARK  151  A    between atoms: _381  and  _382
REMARK  152  A    between atoms: _381  and  _384
REMARK  153  A    between atoms: _384  and  _385
REMARK  154  A    between atoms: _388  and  _390
REMARK  155  A    between atoms: _390  and  _391
REMARK  156  A    between atoms: _390  and  _393
REMARK  157  A    between atoms: _393  and  _394
REMARK  158  A    between atoms: _397  and  _399
REMARK  159  A    between atoms: _399  and  _400
REMARK  160  A    between atoms: _399  and  _402
REMARK  161  A    between atoms: _402  and  _403
REMARK  162  A    between atoms: _406  and  _408
REMARK  163  A    between atoms: _408  and  _409
REMARK  164  A    between atoms: _408  and  _411
REMARK  165  A    between atoms: _411  and  _412
REMARK  166  A    between atoms: _415  and  _417
REMARK  167  A    between atoms: _417  and  _418
REMARK  168  A    between atoms: _417  and  _420
REMARK  169  A    between atoms: _420  and  _421
REMARK  170  A    between atoms: _424  and  _426
REMARK  171  A    between atoms: _426  and  _427
REMARK  172  A    between atoms: _430  and  _432
REMARK  173  A    between atoms: _432  and  _433
REMARK  174  A    between atoms: _432  and  _435
REMARK  175  A    between atoms: _435  and  _436
REMARK  176  A    between atoms: _439  and  _441
REMARK  177  A    between atoms: _441  and  _442
REMARK  178  A    between atoms: _441  and  _444
REMARK  179  A    between atoms: _444  and  _445
REMARK  180  A    between atoms: _448  and  _450
REMARK  181  A    between atoms: _450  and  _451
REMARK  182  A    between atoms: _450  and  _453
REMARK  183  A    between atoms: _453  and  _454
REMARK  184  A    between atoms: _457  and  _459
REMARK  185  A    between atoms: _459  and  _460
REMARK  186  A    between atoms: _459  and  _462
REMARK  187  A    between atoms: _462  and  _463
REMARK  188  A    between atoms: _463  and  _464
REMARK  189  A    between atoms: _464  and  _465
REMARK  190  A    between atoms: _465  and  _466
REMARK  191  A    between atoms: _470  and  _472
REMARK  192  A    between atoms: _472  and  _473
REMARK  193  A    between atoms: _472  and  _475
REMARK  194  A    between atoms: _475  and  _476
REMARK  195  A    between atoms: _479  and  _481
REMARK  196  A    between atoms: _481  and  _482
REMARK  197  A    between atoms: _481  and  _484
REMARK  198  A    between atoms: _484  and  _485
REMARK  199  A    between atoms: _488  and  _490
REMARK  200  A    between atoms: _490  and  _491
REMARK  201  A    between atoms: _490  and  _493
REMARK  202  A    between atoms: _493  and  _494
REMARK  203  A    between atoms: _498  and  _499
REMARK  204  A    between atoms: _504  and  _506
REMARK  205  A    between atoms: _506  and  _507
REMARK  206  A    between atoms: _506  and  _509
REMARK  207  A    between atoms: _509  and  _510
REMARK  208  A    between atoms: _515  and  _517
REMARK  209  A    between atoms: _517  and  _518
REMARK  210  A    between atoms: _517  and  _520
REMARK  211  A    between atoms: _520  and  _521
REMARK  212  A    between atoms: _521  and  _522
REMARK  213  A    between atoms: _522  and  _523
REMARK  214  A    between atoms: _523  and  _524
REMARK  215  A    between atoms: _528  and  _530
REMARK  216  A    between atoms: _530  and  _531
REMARK  217  A    between atoms: _530  and  _533
REMARK  218  A    between atoms: _533  and  _534
REMARK  219  A    between atoms: _534  and  _535
REMARK  220  A    between atoms: _538  and  _540
REMARK  221  A    between atoms: _540  and  _541
REMARK  222  A    between atoms: _540  and  _543
REMARK  223  A    between atoms: _543  and  _544
REMARK  224  A    between atoms: _547  and  _549
REMARK  225  A    between atoms: _549  and  _550
REMARK  226  A    between atoms: _549  and  _552
REMARK  227  A    between atoms: _552  and  _553
REMARK  228  A    between atoms: _553  and  _554
REMARK  229  A    between atoms: _554  and  _555
REMARK  230  A    between atoms: _564  and  _566
REMARK  231  A    between atoms: _566  and  _567
REMARK  232  A    between atoms: _566  and  _569
REMARK  233  A    between atoms: _569  and  _570
REMARK  234  A    between atoms: _572  and  _574
REMARK  235  A    between atoms: _574  and  _575
REMARK  236  A    between atoms: _574  and  _577
REMARK  237  A    between atoms: _577  and  _578
REMARK  238  A    between atoms: _584  and  _586
REMARK  239  A    between atoms: _586  and  _587
REMARK  240  A    between atoms: _590  and  _592
REMARK  241  A    between atoms: _592  and  _593
REMARK  242  A    between atoms: _592  and  _595
REMARK  243  A    between atoms: _595  and  _596
REMARK  244  A    between atoms: _596  and  _597
REMARK  245  A    between atoms: _600  and  _602
REMARK  246  A    between atoms: _602  and  _603
REMARK  247  A    between atoms: _602  and  _605
REMARK  248  A    between atoms: _605  and  _606
REMARK                            x       y       z     vdW  Elec       q    Type
REMARK                         _______ _______ _______ _____ _____    ______ ____
ROOT
ATOM      1  O   HOH     1      -4.499  25.481 -22.669  0.00  0.00    +0.000 OA
ENDROOT
TORSDOF 0
REMARK  Name = ../refined-set-2016/4pzv/4pzv_pocket.pdb
REMARK  248 active torsions:
REMARK  status: ('A' for Active; 'I' for Inactive)
REMARK    1  A    between atoms: _1  and  _3
REMARK    2  A    between atoms: _3  and  _4
REMARK    3  A    between atoms: _3  and  _6
REMARK    4  A    between atoms: _6  and  _7
REMARK    5  A    between atoms: _10  and  _12
REMARK    6  A    between atoms: _12  and  _13
REMARK    7  A    between atoms: _12  and  _15
REMARK    8  A    between atoms: _15  and  _16
REMARK    9  A    between atoms: _19  and  _21
REMARK   10  A    between atoms: _21  and  _22
REMARK   11  A    between atoms: _24  and  _26
REMARK   12  A    between atoms: _26  and  _27
REMARK   13  A    between atoms: _26  and  _29
REMARK   14  A    between atoms: _29  and  _30
REMARK   15  A    between atoms: _33  and  _35
REMARK   16  A    between atoms: _35  and  _36
REMARK   17  A    between atoms: _38  and  _40
REMARK   18  A    between atoms: _40  and  _41
REMARK   19  A    between atoms: _40  and  _43
REMARK   20  A    between atoms: _43  and  _44
REMARK   21  A    between atoms: _47  and  _49
REMARK   22  A    between atoms: _49  and  _50
REMARK   23  A    between atoms: _49  and  _52
REMARK   24  A    between atoms: _52  and  _53
REMARK   25  A    between atoms: _58  and  _60
REMARK   26  A    between atoms: _60  and  _61
REMARK   27  A    between atoms: _60  and  _63
REMARK   28  A    between atoms: _63  and  _64
REMARK   29  A    between atoms: _69  and  _70
REMARK   30  A    between atoms: _72  and  _74
REMARK   31  A    between atoms: _74  and  _75
REMARK   32  A    between atoms: _74  and  _77
REMARK   33  A    between atoms: _77  and  _78
REMARK   34  A    between atoms: _80  and  _82
REMARK   35  A    between atoms: _82  and  _83
REMARK   36  A    between atoms: _82  and  _85
REMARK   37  A    between atoms: _85  and  _86
REMARK   38  A    between atoms: _88  and  _90
REMARK   39  A    between atoms: _90  and  _91
REMARK   40  A    between atoms: _90  and  _93
REMARK   41  A    between atoms: _93  and  _94
REMARK   42  A    between atoms: _94  and  _95
REMARK   43  A    between atoms: _95  and  _96
REMARK   44  A    between atoms: _96  and  _97
REMARK   45  A    between atoms: _101  and  _103
REMARK   46  A    between atoms: _103  and  _104
REMARK   47  A    between atoms: _107  and  _109
REMARK   48  A    between atoms: _109  and  _110
REMARK   49  A    between atoms: _109  and  _112
REMARK   50  A    between atoms: _115  and  _117
REMARK   51  A    between atoms: _117  and  _118
REMARK   52  A    between atoms: _117  and  _120
REMARK   53  A    between atoms: _120  and  _121
REMARK   54  A    between atoms: _124  and  _126
REMARK   55  A    between atoms: _126  and  _127
REMARK   56  A    between atoms: _126  and  _129
REMARK   57  A    between atoms: _129  and  _130
REMARK   58  A    between atoms: _130  and  _131
REMARK   59  A    between atoms: _131  and  _132
REMARK   60  A    between atoms: _132  and  _133
REMARK   61  A    between atoms: _137  and  _139
REMARK   62  A    between atoms: _139  and  _140
REMARK   63  A    between atoms: _139  and  _142
REMARK   64  A    between atoms: _142  and  _143
REMARK   65  A    between atoms: _153  and  _155
REMARK   66  A    between atoms: _155  and  _156
REMARK   67  A    between atoms: _155  and  _158
REMARK   68  A    between atoms: _158  and  _159
REMARK   69  A    between atoms: _162  and  _164
REMARK   70  A    between atoms: _164  and  _165
REMARK   71  A    between atoms: _164  and  _167
REMARK   72  A    between atoms: _167  and  _168
REMARK   73  A    between atoms: _168  and  _169
REMARK   74  A    between atoms: _169  and  _170
REMARK   75  A    between atoms: _179  and  _181
REMARK   76  A    between atoms: _181  and  _182
REMARK   77  A    between atoms: _181  and  _184
REMARK   78  A    between atoms: _184  and  _185
REMARK   79  A    between atoms: _191  and  _193
REMARK   80  A    between atoms: _193  and  _194
REMARK   81  A    between atoms: _193  and  _196
REMARK   82  A    between atoms: _196  and  _197
REMARK   83  A    between atoms: _200  and  _202
REMARK   84  A    between atoms: _202  and  _203
REMARK   85  A    between atoms: _202  and  _205
REMARK   86  A    between atoms: _205  and  _206
REMARK   87  A    between atoms: _211  and  _213
REMARK   88  A    between atoms: _213  and  _214
REMARK   89  A    between atoms: _213  and  _216
REMARK   90  A    between atoms: _216  and  _217
REMARK   91  A    between atoms: _221  and  _222
REMARK   92  A    between atoms: _227  and  _229
REMARK   93  A    between atoms: _229  and  _230
REMARK   94  A    between atoms: _229  and  _232
REMARK   95  A    between atoms: _232  and  _233
REMARK   96  A    between atoms: _236  and  _238
REMARK   97  A    between atoms: _238  and  _239
REMARK   98  A    between atoms: _238  and  _241
REMARK   99  A    between atoms: _241  and  _242
REMARK  100  A    between atoms: _245  and  _247
REMARK  101  A    between atoms: _247  and  _248
REMARK  102  A    between atoms: _247  and  _250
REMARK  103  A    between atoms: _250  and  _251
REMARK  104  A    between atoms: _254  and  _256
REMARK  105  A    between atoms: _256  and  _257
REMARK  106  A    between atoms: _256  and  _259
REMARK  107  A    between atoms: _259  and  _260
REMARK  108  A    between atoms: _260  and  _261
REMARK  109  A    between atoms: _261  and  _262
REMARK  110  A    between atoms: _262  and  _263
REMARK  111  A    between atoms: _267  and  _269
REMARK  112  A    between atoms: _269  and  _270
REMARK  113  A    between atoms: _269  and  _272
REMARK  114  A    between atoms: _272  and  _273
REMARK  115  A    between atoms: _273  and  _274
REMARK  116  A    between atoms: _277  and  _279
REMARK  117  A    between atoms: _279  and  _280
REMARK  118  A    between atoms: _279  and  _282
REMARK  119  A    between atoms: _282  and  _283
REMARK  120  A    between atoms: _283  and  _284
REMARK  121  A    between atoms: _284  and  _285
REMARK  122  A    between atoms: _294  and  _296
REMARK  123  A    between atoms: _296  and  _297
REMARK  124  A    between atoms: _296  and  _299
REMARK  125  A    between atoms: _299  and  _300
REMARK  126  A    between atoms: _303  and  _305
REMARK  127  A    between atoms: _305  and  _306
REMARK  128  A    between atoms: _310  and  _311
REMARK  129  A    between atoms: _316  and  _318
REMARK  130  A    between atoms: _318  and  _319
REMARK  131  A    between atoms: _322  and  _324
REMARK  132  A    between atoms: _324  and  _325
REMARK  133  A    between atoms: _324  and  _327
REMARK  134  A    between atoms: _327  and  _328
REMARK  135  A    between atoms: _338  and  _340
REMARK  136  A    between atoms: _340  and  _341
REMARK  137  A    between atoms: _340  and  _343
REMARK  138  A    between atoms: _343  and  _344
REMARK  139  A    between atoms: _347  and  _348
REMARK  140  A    between atoms: _353  and  _355
REMARK  141  A    between atoms: _355  and  _356
REMARK  142  A    between atoms: _355  and  _358
REMARK  143  A    between atoms: _358  and  _359
REMARK  144  A    between atoms: _359  and  _360
REMARK  145  A    between atoms: _360  and  _361
REMARK  146  A    between atoms: _370  and  _372
REMARK  147  A    between atoms: _372  and  _373
REMARK  148  A    between atoms: _372  and  _375
REMARK  149  A    between atoms: _375  and  _376
REMARK  150  A    between atoms: _379  and  _381
REMARK  151  A    between atoms: _381  and  _382
REMARK  152  A    between atoms: _381  and  _384
REMARK  153  A    between atoms: _384  and  _385
REMARK  154  A    between atoms: _388  and  _390
REMARK  155  A    between atoms: _390  and  _391
REMARK  156  A    between atoms: _390  and  _393
REMARK  157  A    between atoms: _393  and  _394
REMARK  158  A    between atoms: _397  and  _399
REMARK  159  A    between atoms: _399  and  _400
REMARK  160  A    between atoms: _399  and  _402
REMARK  161  A    between atoms: _402  and  _403
REMARK  162  A    between atoms: _406  and  _408
REMARK  163  A    between atoms: _408  and  _409
REMARK  164  A    between atoms: _408  and  _411
REMARK  165  A    between atoms: _411  and  _412
REMARK  166  A    between atoms: _415  and  _417
REMARK  167  A    between atoms: _417  and  _418
REMARK  168  A    between atoms: _417  and  _420
REMARK  169  A    between atoms: _420  and  _421
REMARK  170  A    between atoms: _424  and  _426
REMARK  171  A    between atoms: _426  and  _427
REMARK  172  A    between atoms: _430  and  _432
REMARK  173  A    between atoms: _432  and  _433
REMARK  174  A    between atoms: _432  and  _435
REMARK  175  A    between atoms: _435  and  _436
REMARK  176  A    between atoms: _439  and  _441
REMARK  177  A    between atoms: _441  and  _442
REMARK  178  A    between atoms: _441  and  _444
REMARK  179  A    between atoms: _444  and  _445
REMARK  180  A    between atoms: _448  and  _450
REMARK  181  A    between atoms: _450  and  _451
REMARK  182  A    between atoms: _450  and  _453
REMARK  183  A    between atoms: _453  and  _454
REMARK  184  A    between atoms: _457  and  _459
REMARK  185  A    between atoms: _459  and  _460
REMARK  186  A    between atoms: _459  and  _462
REMARK  187  A    between atoms: _462  and  _463
REMARK  188  A    between atoms: _463  and  _464
REMARK  189  A    between atoms: _464  and  _465
REMARK  190  A    between atoms: _465  and  _466
REMARK  191  A    between atoms: _470  and  _472
REMARK  192  A    between atoms: _472  and  _473
REMARK  193  A    between atoms: _472  and  _475
REMARK  194  A    between atoms: _475  and  _476
REMARK  195  A    between atoms: _479  and  _481
REMARK  196  A    between atoms: _481  and  _482
REMARK  197  A    between atoms: _481  and  _484
REMARK  198  A    between atoms: _484  and  _485
REMARK  199  A    between atoms: _488  and  _490
REMARK  200  A    between atoms: _490  and  _491
REMARK  201  A    between atoms: _490  and  _493
REMARK  202  A    between atoms: _493  and  _494
REMARK  203  A    between atoms: _498  and  _499
REMARK  204  A    between atoms: _504  and  _506
REMARK  205  A    between atoms: _506  and  _507
REMARK  206  A    between atoms: _506  and  _509
REMARK  207  A    between atoms: _509  and  _510
REMARK  208  A    between atoms: _515  and  _517
REMARK  209  A    between atoms: _517  and  _518
REMARK  210  A    between atoms: _517  and  _520
REMARK  211  A    between atoms: _520  and  _521
REMARK  212  A    between atoms: _521  and  _522
REMARK  213  A    between atoms: _522  and  _523
REMARK  214  A    between atoms: _523  and  _524
REMARK  215  A    between atoms: _528  and  _530
REMARK  216  A    between atoms: _530  and  _531
REMARK  217  A    between atoms: _530  and  _533
REMARK  218  A    between atoms: _533  and  _534
REMARK  219  A    between atoms: _534  and  _535
REMARK  220  A    between atoms: _538  and  _540
REMARK  221  A    between atoms: _540  and  _541
REMARK  222  A    between atoms: _540  and  _543
REMARK  223  A    between atoms: _543  and  _544
REMARK  224  A    between atoms: _547  and  _549
REMARK  225  A    between atoms: _549  and  _550
REMARK  226  A    between atoms: _549  and  _552
REMARK  227  A    between atoms: _552  and  _553
REMARK  228  A    between atoms: _553  and  _554
REMARK  229  A    between atoms: _554  and  _555
REMARK  230  A    between atoms: _564  and  _566
REMARK  231  A    between atoms: _566  and  _567
REMARK  232  A    between atoms: _566  and  _569
REMARK  233  A    between atoms: _569  and  _570
REMARK  234  A    between atoms: _572  and  _574
REMARK  235  A    between atoms: _574  and  _575
REMARK  236  A    between atoms: _574  and  _577
REMARK  237  A    between atoms: _577  and  _578
REMARK  238  A    between atoms: _584  and  _586
REMARK  239  A    between atoms: _586  and  _587
REMARK  240  A    between atoms: _590  and  _592
REMARK  241  A    between atoms: _592  and  _593
REMARK  242  A    between atoms: _592  and  _595
REMARK  243  A    between atoms: _595  and  _596
REMARK  244  A    between atoms: _596  and  _597
REMARK  245  A    between atoms: _600  and  _602
REMARK  246  A    between atoms: _602  and  _603
REMARK  247  A    between atoms: _602  and  _605
REMARK  248  A    between atoms: _605  and  _606
REMARK                            x       y       z     vdW  Elec       q    Type
REMARK                         _______ _______ _______ _____ _____    ______ ____
ROOT
ATOM      1  O   HOH     1      -0.108  34.738  -9.462  0.00  0.00    +0.000 OA
ENDROOT
TORSDOF 0
REMARK  Name = ../refined-set-2016/4pzv/4pzv_pocket.pdb
REMARK  248 active torsions:
REMARK  status: ('A' for Active; 'I' for Inactive)
REMARK    1  A    between atoms: _1  and  _3
REMARK    2  A    between atoms: _3  and  _4
REMARK    3  A    between atoms: _3  and  _6
REMARK    4  A    between atoms: _6  and  _7
REMARK    5  A    between atoms: _10  and  _12
REMARK    6  A    between atoms: _12  and  _13
REMARK    7  A    between atoms: _12  and  _15
REMARK    8  A    between atoms: _15  and  _16
REMARK    9  A    between atoms: _19  and  _21
REMARK   10  A    between atoms: _21  and  _22
REMARK   11  A    between atoms: _24  and  _26
REMARK   12  A    between atoms: _26  and  _27
REMARK   13  A    between atoms: _26  and  _29
REMARK   14  A    between atoms: _29  and  _30
REMARK   15  A    between atoms: _33  and  _35
REMARK   16  A    between atoms: _35  and  _36
REMARK   17  A    between atoms: _38  and  _40
REMARK   18  A    between atoms: _40  and  _41
REMARK   19  A    between atoms: _40  and  _43
REMARK   20  A    between atoms: _43  and  _44
REMARK   21  A    between atoms: _47  and  _49
REMARK   22  A    between atoms: _49  and  _50
REMARK   23  A    between atoms: _49  and  _52
REMARK   24  A    between atoms: _52  and  _53
REMARK   25  A    between atoms: _58  and  _60
REMARK   26  A    between atoms: _60  and  _61
REMARK   27  A    between atoms: _60  and  _63
REMARK   28  A    between atoms: _63  and  _64
REMARK   29  A    between atoms: _69  and  _70
REMARK   30  A    between atoms: _72  and  _74
REMARK   31  A    between atoms: _74  and  _75
REMARK   32  A    between atoms: _74  and  _77
REMARK   33  A    between atoms: _77  and  _78
REMARK   34  A    between atoms: _80  and  _82
REMARK   35  A    between atoms: _82  and  _83
REMARK   36  A    between atoms: _82  and  _85
REMARK   37  A    between atoms: _85  and  _86
REMARK   38  A    between atoms: _88  and  _90
REMARK   39  A    between atoms: _90  and  _91
REMARK   40  A    between atoms: _90  and  _93
REMARK   41  A    between atoms: _93  and  _94
REMARK   42  A    between atoms: _94  and  _95
REMARK   43  A    between atoms: _95  and  _96
REMARK   44  A    between atoms: _96  and  _97
REMARK   45  A    between atoms: _101  and  _103
REMARK   46  A    between atoms: _103  and  _104
REMARK   47  A    between atoms: _107  and  _109
REMARK   48  A    between atoms: _109  and  _110
REMARK   49  A    between atoms: _109  and  _112
REMARK   50  A    between atoms: _115  and  _117
REMARK   51  A    between atoms: _117  and  _118
REMARK   52  A    between atoms: _117  and  _120
REMARK   53  A    between atoms: _120  and  _121
REMARK   54  A    between atoms: _124  and  _126
REMARK   55  A    between atoms: _126  and  _127
REMARK   56  A    between atoms: _126  and  _129
REMARK   57  A    between atoms: _129  and  _130
REMARK   58  A    between atoms: _130  and  _131
REMARK   59  A    between atoms: _131  and  _132
REMARK   60  A    between atoms: _132  and  _133
REMARK   61  A    between atoms: _137  and  _139
REMARK   62  A    between atoms: _139  and  _140
REMARK   63  A    between atoms: _139  and  _142
REMARK   64  A    between atoms: _142  and  _143
REMARK   65  A    between atoms: _153  and  _155
REMARK   66  A    between atoms: _155  and  _156
REMARK   67  A    between atoms: _155  and  _158
REMARK   68  A    between atoms: _158  and  _159
REMARK   69  A    between atoms: _162  and  _164
REMARK   70  A    between atoms: _164  and  _165
REMARK   71  A    between atoms: _164  and  _167
REMARK   72  A    between atoms: _167  and  _168
REMARK   73  A    between atoms: _168  and  _169
REMARK   74  A    between atoms: _169  and  _170
REMARK   75  A    between atoms: _179  and  _181
REMARK   76  A    between atoms: _181  and  _182
REMARK   77  A    between atoms: _181  and  _184
REMARK   78  A    between atoms: _184  and  _185
REMARK   79  A    between atoms: _191  and  _193
REMARK   80  A    between atoms: _193  and  _194
REMARK   81  A    between atoms: _193  and  _196
REMARK   82  A    between atoms: _196  and  _197
REMARK   83  A    between atoms: _200  and  _202
REMARK   84  A    between atoms: _202  and  _203
REMARK   85  A    between atoms: _202  and  _205
REMARK   86  A    between atoms: _205  and  _206
REMARK   87  A    between atoms: _211  and  _213
REMARK   88  A    between atoms: _213  and  _214
REMARK   89  A    between atoms: _213  and  _216
REMARK   90  A    between atoms: _216  and  _217
REMARK   91  A    between atoms: _221  and  _222
REMARK   92  A    between atoms: _227  and  _229
REMARK   93  A    between atoms: _229  and  _230
REMARK   94  A    between atoms: _229  and  _232
REMARK   95  A    between atoms: _232  and  _233
REMARK   96  A    between atoms: _236  and  _238
REMARK   97  A    between atoms: _238  and  _239
REMARK   98  A    between atoms: _238  and  _241
REMARK   99  A    between atoms: _241  and  _242
REMARK  100  A    between atoms: _245  and  _247
REMARK  101  A    between atoms: _247  and  _248
REMARK  102  A    between atoms: _247  and  _250
REMARK  103  A    between atoms: _250  and  _251
REMARK  104  A    between atoms: _254  and  _256
REMARK  105  A    between atoms: _256  and  _257
REMARK  106  A    between atoms: _256  and  _259
REMARK  107  A    between atoms: _259  and  _260
REMARK  108  A    between atoms: _260  and  _261
REMARK  109  A    between atoms: _261  and  _262
REMARK  110  A    between atoms: _262  and  _263
REMARK  111  A    between atoms: _267  and  _269
REMARK  112  A    between atoms: _269  and  _270
REMARK  113  A    between atoms: _269  and  _272
REMARK  114  A    between atoms: _272  and  _273
REMARK  115  A    between atoms: _273  and  _274
REMARK  116  A    between atoms: _277  and  _279
REMARK  117  A    between atoms: _279  and  _280
REMARK  118  A    between atoms: _279  and  _282
REMARK  119  A    between atoms: _282  and  _283
REMARK  120  A    between atoms: _283  and  _284
REMARK  121  A    between atoms: _284  and  _285
REMARK  122  A    between atoms: _294  and  _296
REMARK  123  A    between atoms: _296  and  _297
REMARK  124  A    between atoms: _296  and  _299
REMARK  125  A    between atoms: _299  and  _300
REMARK  126  A    between atoms: _303  and  _305
REMARK  127  A    between atoms: _305  and  _306
REMARK  128  A    between atoms: _310  and  _311
REMARK  129  A    between atoms: _316  and  _318
REMARK  130  A    between atoms: _318  and  _319
REMARK  131  A    between atoms: _322  and  _324
REMARK  132  A    between atoms: _324  and  _325
REMARK  133  A    between atoms: _324  and  _327
REMARK  134  A    between atoms: _327  and  _328
REMARK  135  A    between atoms: _338  and  _340
REMARK  136  A    between atoms: _340  and  _341
REMARK  137  A    between atoms: _340  and  _343
REMARK  138  A    between atoms: _343  and  _344
REMARK  139  A    between atoms: _347  and  _348
REMARK  140  A    between atoms: _353  and  _355
REMARK  141  A    between atoms: _355  and  _356
REMARK  142  A    between atoms: _355  and  _358
REMARK  143  A    between atoms: _358  and  _359
REMARK  144  A    between atoms: _359  and  _360
REMARK  145  A    between atoms: _360  and  _361
REMARK  146  A    between atoms: _370  and  _372
REMARK  147  A    between atoms: _372  and  _373
REMARK  148  A    between atoms: _372  and  _375
REMARK  149  A    between atoms: _375  and  _376
REMARK  150  A    between atoms: _379  and  _381
REMARK  151  A    between atoms: _381  and  _382
REMARK  152  A    between atoms: _381  and  _384
REMARK  153  A    between atoms: _384  and  _385
REMARK  154  A    between atoms: _388  and  _390
REMARK  155  A    between atoms: _390  and  _391
REMARK  156  A    between atoms: _390  and  _393
REMARK  157  A    between atoms: _393  and  _394
REMARK  158  A    between atoms: _397  and  _399
REMARK  159  A    between atoms: _399  and  _400
REMARK  160  A    between atoms: _399  and  _402
REMARK  161  A    between atoms: _402  and  _403
REMARK  162  A    between atoms: _406  and  _408
REMARK  163  A    between atoms: _408  and  _409
REMARK  164  A    between atoms: _408  and  _411
REMARK  165  A    between atoms: _411  and  _412
REMARK  166  A    between atoms: _415  and  _417
REMARK  167  A    between atoms: _417  and  _418
REMARK  168  A    between atoms: _417  and  _420
REMARK  169  A    between atoms: _420  and  _421
REMARK  170  A    between atoms: _424  and  _426
REMARK  171  A    between atoms: _426  and  _427
REMARK  172  A    between atoms: _430  and  _432
REMARK  173  A    between atoms: _432  and  _433
REMARK  174  A    between atoms: _432  and  _435
REMARK  175  A    between atoms: _435  and  _436
REMARK  176  A    between atoms: _439  and  _441
REMARK  177  A    between atoms: _441  and  _442
REMARK  178  A    between atoms: _441  and  _444
REMARK  179  A    between atoms: _444  and  _445
REMARK  180  A    between atoms: _448  and  _450
REMARK  181  A    between atoms: _450  and  _451
REMARK  182  A    between atoms: _450  and  _453
REMARK  183  A    between atoms: _453  and  _454
REMARK  184  A    between atoms: _457  and  _459
REMARK  185  A    between atoms: _459  and  _460
REMARK  186  A    between atoms: _459  and  _462
REMARK  187  A    between atoms: _462  and  _463
REMARK  188  A    between atoms: _463  and  _464
REMARK  189  A    between atoms: _464  and  _465
REMARK  190  A    between atoms: _465  and  _466
REMARK  191  A    between atoms: _470  and  _472
REMARK  192  A    between atoms: _472  and  _473
REMARK  193  A    between atoms: _472  and  _475
REMARK  194  A    between atoms: _475  and  _476
REMARK  195  A    between atoms: _479  and  _481
REMARK  196  A    between atoms: _481  and  _482
REMARK  197  A    between atoms: _481  and  _484
REMARK  198  A    between atoms: _484  and  _485
REMARK  199  A    between atoms: _488  and  _490
REMARK  200  A    between atoms: _490  and  _491
REMARK  201  A    between atoms: _490  and  _493
REMARK  202  A    between atoms: _493  and  _494
REMARK  203  A    between atoms: _498  and  _499
REMARK  204  A    between atoms: _504  and  _506
REMARK  205  A    between atoms: _506  and  _507
REMARK  206  A    between atoms: _506  and  _509
REMARK  207  A    between atoms: _509  and  _510
REMARK  208  A    between atoms: _515  and  _517
REMARK  209  A    between atoms: _517  and  _518
REMARK  210  A    between atoms: _517  and  _520
REMARK  211  A    between atoms: _520  and  _521
REMARK  212  A    between atoms: _521  and  _522
REMARK  213  A    between atoms: _522  and  _523
REMARK  214  A    between atoms: _523  and  _524
REMARK  215  A    between atoms: _528  and  _530
REMARK  216  A    between atoms: _530  and  _531
REMARK  217  A    between atoms: _530  and  _533
REMARK  218  A    between atoms: _533  and  _534
REMARK  219  A    between atoms: _534  and  _535
REMARK  220  A    between atoms: _538  and  _540
REMARK  221  A    between atoms: _540  and  _541
REMARK  222  A    between atoms: _540  and  _543
REMARK  223  A    between atoms: _543  and  _544
REMARK  224  A    between atoms: _547  and  _549
REMARK  225  A    between atoms: _549  and  _550
REMARK  226  A    between atoms: _549  and  _552
REMARK  227  A    between atoms: _552  and  _553
REMARK  228  A    between atoms: _553  and  _554
REMARK  229  A    between atoms: _554  and  _555
REMARK  230  A    between atoms: _564  and  _566
REMARK  231  A    between atoms: _566  and  _567
REMARK  232  A    between atoms: _566  and  _569
REMARK  233  A    between atoms: _569  and  _570
REMARK  234  A    between atoms: _572  and  _574
REMARK  235  A    between atoms: _574  and  _575
REMARK  236  A    between atoms: _574  and  _577
REMARK  237  A    between atoms: _577  and  _578
REMARK  238  A    between atoms: _584  and  _586
REMARK  239  A    between atoms: _586  and  _587
REMARK  240  A    between atoms: _590  and  _592
REMARK  241  A    between atoms: _592  and  _593
REMARK  242  A    between atoms: _592  and  _595
REMARK  243  A    between atoms: _595  and  _596
REMARK  244  A    between atoms: _596  and  _597
REMARK  245  A    between atoms: _600  and  _602
REMARK  246  A    between atoms: _602  and  _603
REMARK  247  A    between atoms: _602  and  _605
REMARK  248  A    between atoms: _605  and  _606
REMARK                            x       y       z     vdW  Elec       q    Type
REMARK                         _______ _______ _______ _____ _____    ______ ____
ROOT
ATOM      1  O   HOH     1       0.048  27.190 -16.488  0.00  0.00    +0.000 OA
ENDROOT
TORSDOF 0
REMARK  Name = ../refined-set-2016/4pzv/4pzv_pocket.pdb
REMARK  248 active torsions:
REMARK  status: ('A' for Active; 'I' for Inactive)
REMARK    1  A    between atoms: _1  and  _3
REMARK    2  A    between atoms: _3  and  _4
REMARK    3  A    between atoms: _3  and  _6
REMARK    4  A    between atoms: _6  and  _7
REMARK    5  A    between atoms: _10  and  _12
REMARK    6  A    between atoms: _12  and  _13
REMARK    7  A    between atoms: _12  and  _15
REMARK    8  A    between atoms: _15  and  _16
REMARK    9  A    between atoms: _19  and  _21
REMARK   10  A    between atoms: _21  and  _22
REMARK   11  A    between atoms: _24  and  _26
REMARK   12  A    between atoms: _26  and  _27
REMARK   13  A    between atoms: _26  and  _29
REMARK   14  A    between atoms: _29  and  _30
REMARK   15  A    between atoms: _33  and  _35
REMARK   16  A    between atoms: _35  and  _36
REMARK   17  A    between atoms: _38  and  _40
REMARK   18  A    between atoms: _40  and  _41
REMARK   19  A    between atoms: _40  and  _43
REMARK   20  A    between atoms: _43  and  _44
REMARK   21  A    between atoms: _47  and  _49
REMARK   22  A    between atoms: _49  and  _50
REMARK   23  A    between atoms: _49  and  _52
REMARK   24  A    between atoms: _52  and  _53
REMARK   25  A    between atoms: _58  and  _60
REMARK   26  A    between atoms: _60  and  _61
REMARK   27  A    between atoms: _60  and  _63
REMARK   28  A    between atoms: _63  and  _64
REMARK   29  A    between atoms: _69  and  _70
REMARK   30  A    between atoms: _72  and  _74
REMARK   31  A    between atoms: _74  and  _75
REMARK   32  A    between atoms: _74  and  _77
REMARK   33  A    between atoms: _77  and  _78
REMARK   34  A    between atoms: _80  and  _82
REMARK   35  A    between atoms: _82  and  _83
REMARK   36  A    between atoms: _82  and  _85
REMARK   37  A    between atoms: _85  and  _86
REMARK   38  A    between atoms: _88  and  _90
REMARK   39  A    between atoms: _90  and  _91
REMARK   40  A    between atoms: _90  and  _93
REMARK   41  A    between atoms: _93  and  _94
REMARK   42  A    between atoms: _94  and  _95
REMARK   43  A    between atoms: _95  and  _96
REMARK   44  A    between atoms: _96  and  _97
REMARK   45  A    between atoms: _101  and  _103
REMARK   46  A    between atoms: _103  and  _104
REMARK   47  A    between atoms: _107  and  _109
REMARK   48  A    between atoms: _109  and  _110
REMARK   49  A    between atoms: _109  and  _112
REMARK   50  A    between atoms: _115  and  _117
REMARK   51  A    between atoms: _117  and  _118
REMARK   52  A    between atoms: _117  and  _120
REMARK   53  A    between atoms: _120  and  _121
REMARK   54  A    between atoms: _124  and  _126
REMARK   55  A    between atoms: _126  and  _127
REMARK   56  A    between atoms: _126  and  _129
REMARK   57  A    between atoms: _129  and  _130
REMARK   58  A    between atoms: _130  and  _131
REMARK   59  A    between atoms: _131  and  _132
REMARK   60  A    between atoms: _132  and  _133
REMARK   61  A    between atoms: _137  and  _139
REMARK   62  A    between atoms: _139  and  _140
REMARK   63  A    between atoms: _139  and  _142
REMARK   64  A    between atoms: _142  and  _143
REMARK   65  A    between atoms: _153  and  _155
REMARK   66  A    between atoms: _155  and  _156
REMARK   67  A    between atoms: _155  and  _158
REMARK   68  A    between atoms: _158  and  _159
REMARK   69  A    between atoms: _162  and  _164
REMARK   70  A    between atoms: _164  and  _165
REMARK   71  A    between atoms: _164  and  _167
REMARK   72  A    between atoms: _167  and  _168
REMARK   73  A    between atoms: _168  and  _169
REMARK   74  A    between atoms: _169  and  _170
REMARK   75  A    between atoms: _179  and  _181
REMARK   76  A    between atoms: _181  and  _182
REMARK   77  A    between atoms: _181  and  _184
REMARK   78  A    between atoms: _184  and  _185
REMARK   79  A    between atoms: _191  and  _193
REMARK   80  A    between atoms: _193  and  _194
REMARK   81  A    between atoms: _193  and  _196
REMARK   82  A    between atoms: _196  and  _197
REMARK   83  A    between atoms: _200  and  _202
REMARK   84  A    between atoms: _202  and  _203
REMARK   85  A    between atoms: _202  and  _205
REMARK   86  A    between atoms: _205  and  _206
REMARK   87  A    between atoms: _211  and  _213
REMARK   88  A    between atoms: _213  and  _214
REMARK   89  A    between atoms: _213  and  _216
REMARK   90  A    between atoms: _216  and  _217
REMARK   91  A    between atoms: _221  and  _222
REMARK   92  A    between atoms: _227  and  _229
REMARK   93  A    between atoms: _229  and  _230
REMARK   94  A    between atoms: _229  and  _232
REMARK   95  A    between atoms: _232  and  _233
REMARK   96  A    between atoms: _236  and  _238
REMARK   97  A    between atoms: _238  and  _239
REMARK   98  A    between atoms: _238  and  _241
REMARK   99  A    between atoms: _241  and  _242
REMARK  100  A    between atoms: _245  and  _247
REMARK  101  A    between atoms: _247  and  _248
REMARK  102  A    between atoms: _247  and  _250
REMARK  103  A    between atoms: _250  and  _251
REMARK  104  A    between atoms: _254  and  _256
REMARK  105  A    between atoms: _256  and  _257
REMARK  106  A    between atoms: _256  and  _259
REMARK  107  A    between atoms: _259  and  _260
REMARK  108  A    between atoms: _260  and  _261
REMARK  109  A    between atoms: _261  and  _262
REMARK  110  A    between atoms: _262  and  _263
REMARK  111  A    between atoms: _267  and  _269
REMARK  112  A    between atoms: _269  and  _270
REMARK  113  A    between atoms: _269  and  _272
REMARK  114  A    between atoms: _272  and  _273
REMARK  115  A    between atoms: _273  and  _274
REMARK  116  A    between atoms: _277  and  _279
REMARK  117  A    between atoms: _279  and  _280
REMARK  118  A    between atoms: _279  and  _282
REMARK  119  A    between atoms: _282  and  _283
REMARK  120  A    between atoms: _283  and  _284
REMARK  121  A    between atoms: _284  and  _285
REMARK  122  A    between atoms: _294  and  _296
REMARK  123  A    between atoms: _296  and  _297
REMARK  124  A    between atoms: _296  and  _299
REMARK  125  A    between atoms: _299  and  _300
REMARK  126  A    between atoms: _303  and  _305
REMARK  127  A    between atoms: _305  and  _306
REMARK  128  A    between atoms: _310  and  _311
REMARK  129  A    between atoms: _316  and  _318
REMARK  130  A    between atoms: _318  and  _319
REMARK  131  A    between atoms: _322  and  _324
REMARK  132  A    between atoms: _324  and  _325
REMARK  133  A    between atoms: _324  and  _327
REMARK  134  A    between atoms: _327  and  _328
REMARK  135  A    between atoms: _338  and  _340
REMARK  136  A    between atoms: _340  and  _341
REMARK  137  A    between atoms: _340  and  _343
REMARK  138  A    between atoms: _343  and  _344
REMARK  139  A    between atoms: _347  and  _348
REMARK  140  A    between atoms: _353  and  _355
REMARK  141  A    between atoms: _355  and  _356
REMARK  142  A    between atoms: _355  and  _358
REMARK  143  A    between atoms: _358  and  _359
REMARK  144  A    between atoms: _359  and  _360
REMARK  145  A    between atoms: _360  and  _361
REMARK  146  A    between atoms: _370  and  _372
REMARK  147  A    between atoms: _372  and  _373
REMARK  148  A    between atoms: _372  and  _375
REMARK  149  A    between atoms: _375  and  _376
REMARK  150  A    between atoms: _379  and  _381
REMARK  151  A    between atoms: _381  and  _382
REMARK  152  A    between atoms: _381  and  _384
REMARK  153  A    between atoms: _384  and  _385
REMARK  154  A    between atoms: _388  and  _390
REMARK  155  A    between atoms: _390  and  _391
REMARK  156  A    between atoms: _390  and  _393
REMARK  157  A    between atoms: _393  and  _394
REMARK  158  A    between atoms: _397  and  _399
REMARK  159  A    between atoms: _399  and  _400
REMARK  160  A    between atoms: _399  and  _402
REMARK  161  A    between atoms: _402  and  _403
REMARK  162  A    between atoms: _406  and  _408
REMARK  163  A    between atoms: _408  and  _409
REMARK  164  A    between atoms: _408  and  _411
REMARK  165  A    between atoms: _411  and  _412
REMARK  166  A    between atoms: _415  and  _417
REMARK  167  A    between atoms: _417  and  _418
REMARK  168  A    between atoms: _417  and  _420
REMARK  169  A    between atoms: _420  and  _421
REMARK  170  A    between atoms: _424  and  _426
REMARK  171  A    between atoms: _426  and  _427
REMARK  172  A    between atoms: _430  and  _432
REMARK  173  A    between atoms: _432  and  _433
REMARK  174  A    between atoms: _432  and  _435
REMARK  175  A    between atoms: _435  and  _436
REMARK  176  A    between atoms: _439  and  _441
REMARK  177  A    between atoms: _441  and  _442
REMARK  178  A    between atoms: _441  and  _444
REMARK  179  A    between atoms: _444  and  _445
REMARK  180  A    between atoms: _448  and  _450
REMARK  181  A    between atoms: _450  and  _451
REMARK  182  A    between atoms: _450  and  _453
REMARK  183  A    between atoms: _453  and  _454
REMARK  184  A    between atoms: _457  and  _459
REMARK  185  A    between atoms: _459  and  _460
REMARK  186  A    between atoms: _459  and  _462
REMARK  187  A    between atoms: _462  and  _463
REMARK  188  A    between atoms: _463  and  _464
REMARK  189  A    between atoms: _464  and  _465
REMARK  190  A    between atoms: _465  and  _466
REMARK  191  A    between atoms: _470  and  _472
REMARK  192  A    between atoms: _472  and  _473
REMARK  193  A    between atoms: _472  and  _475
REMARK  194  A    between atoms: _475  and  _476
REMARK  195  A    between atoms: _479  and  _481
REMARK  196  A    between atoms: _481  and  _482
REMARK  197  A    between atoms: _481  and  _484
REMARK  198  A    between atoms: _484  and  _485
REMARK  199  A    between atoms: _488  and  _490
REMARK  200  A    between atoms: _490  and  _491
REMARK  201  A    between atoms: _490  and  _493
REMARK  202  A    between atoms: _493  and  _494
REMARK  203  A    between atoms: _498  and  _499
REMARK  204  A    between atoms: _504  and  _506
REMARK  205  A    between atoms: _506  and  _507
REMARK  206  A    between atoms: _506  and  _509
REMARK  207  A    between atoms: _509  and  _510
REMARK  208  A    between atoms: _515  and  _517
REMARK  209  A    between atoms: _517  and  _518
REMARK  210  A    between atoms: _517  and  _520
REMARK  211  A    between atoms: _520  and  _521
REMARK  212  A    between atoms: _521  and  _522
REMARK  213  A    between atoms: _522  and  _523
REMARK  214  A    between atoms: _523  and  _524
REMARK  215  A    between atoms: _528  and  _530
REMARK  216  A    between atoms: _530  and  _531
REMARK  217  A    between atoms: _530  and  _533
REMARK  218  A    between atoms: _533  and  _534
REMARK  219  A    between atoms: _534  and  _535
REMARK  220  A    between atoms: _538  and  _540
REMARK  221  A    between atoms: _540  and  _541
REMARK  222  A    between atoms: _540  and  _543
REMARK  223  A    between atoms: _543  and  _544
REMARK  224  A    between atoms: _547  and  _549
REMARK  225  A    between atoms: _549  and  _550
REMARK  226  A    between atoms: _549  and  _552
REMARK  227  A    between atoms: _552  and  _553
REMARK  228  A    between atoms: _553  and  _554
REMARK  229  A    between atoms: _554  and  _555
REMARK  230  A    between atoms: _564  and  _566
REMARK  231  A    between atoms: _566  and  _567
REMARK  232  A    between atoms: _566  and  _569
REMARK  233  A    between atoms: _569  and  _570
REMARK  234  A    between atoms: _572  and  _574
REMARK  235  A    between atoms: _574  and  _575
REMARK  236  A    between atoms: _574  and  _577
REMARK  237  A    between atoms: _577  and  _578
REMARK  238  A    between atoms: _584  and  _586
REMARK  239  A    between atoms: _586  and  _587
REMARK  240  A    between atoms: _590  and  _592
REMARK  241  A    between atoms: _592  and  _593
REMARK  242  A    between atoms: _592  and  _595
REMARK  243  A    between atoms: _595  and  _596
REMARK  244  A    between atoms: _596  and  _597
REMARK  245  A    between atoms: _600  and  _602
REMARK  246  A    between atoms: _602  and  _603
REMARK  247  A    between atoms: _602  and  _605
REMARK  248  A    between atoms: _605  and  _606
REMARK                            x       y       z     vdW  Elec       q    Type
REMARK                         _______ _______ _______ _____ _____    ______ ____
ROOT
ATOM      1  O   HOH     1      12.764  27.230 -16.691  0.00  0.00    +0.000 OA
ENDROOT
TORSDOF 0
REMARK  Name = ../refined-set-2016/4pzv/4pzv_pocket.pdb
REMARK  248 active torsions:
REMARK  status: ('A' for Active; 'I' for Inactive)
REMARK    1  A    between atoms: _1  and  _3
REMARK    2  A    between atoms: _3  and  _4
REMARK    3  A    between atoms: _3  and  _6
REMARK    4  A    between atoms: _6  and  _7
REMARK    5  A    between atoms: _10  and  _12
REMARK    6  A    between atoms: _12  and  _13
REMARK    7  A    between atoms: _12  and  _15
REMARK    8  A    between atoms: _15  and  _16
REMARK    9  A    between atoms: _19  and  _21
REMARK   10  A    between atoms: _21  and  _22
REMARK   11  A    between atoms: _24  and  _26
REMARK   12  A    between atoms: _26  and  _27
REMARK   13  A    between atoms: _26  and  _29
REMARK   14  A    between atoms: _29  and  _30
REMARK   15  A    between atoms: _33  and  _35
REMARK   16  A    between atoms: _35  and  _36
REMARK   17  A    between atoms: _38  and  _40
REMARK   18  A    between atoms: _40  and  _41
REMARK   19  A    between atoms: _40  and  _43
REMARK   20  A    between atoms: _43  and  _44
REMARK   21  A    between atoms: _47  and  _49
REMARK   22  A    between atoms: _49  and  _50
REMARK   23  A    between atoms: _49  and  _52
REMARK   24  A    between atoms: _52  and  _53
REMARK   25  A    between atoms: _58  and  _60
REMARK   26  A    between atoms: _60  and  _61
REMARK   27  A    between atoms: _60  and  _63
REMARK   28  A    between atoms: _63  and  _64
REMARK   29  A    between atoms: _69  and  _70
REMARK   30  A    between atoms: _72  and  _74
REMARK   31  A    between atoms: _74  and  _75
REMARK   32  A    between atoms: _74  and  _77
REMARK   33  A    between atoms: _77  and  _78
REMARK   34  A    between atoms: _80  and  _82
REMARK   35  A    between atoms: _82  and  _83
REMARK   36  A    between atoms: _82  and  _85
REMARK   37  A    between atoms: _85  and  _86
REMARK   38  A    between atoms: _88  and  _90
REMARK   39  A    between atoms: _90  and  _91
REMARK   40  A    between atoms: _90  and  _93
REMARK   41  A    between atoms: _93  and  _94
REMARK   42  A    between atoms: _94  and  _95
REMARK   43  A    between atoms: _95  and  _96
REMARK   44  A    between atoms: _96  and  _97
REMARK   45  A    between atoms: _101  and  _103
REMARK   46  A    between atoms: _103  and  _104
REMARK   47  A    between atoms: _107  and  _109
REMARK   48  A    between atoms: _109  and  _110
REMARK   49  A    between atoms: _109  and  _112
REMARK   50  A    between atoms: _115  and  _117
REMARK   51  A    between atoms: _117  and  _118
REMARK   52  A    between atoms: _117  and  _120
REMARK   53  A    between atoms: _120  and  _121
REMARK   54  A    between atoms: _124  and  _126
REMARK   55  A    between atoms: _126  and  _127
REMARK   56  A    between atoms: _126  and  _129
REMARK   57  A    between atoms: _129  and  _130
REMARK   58  A    between atoms: _130  and  _131
REMARK   59  A    between atoms: _131  and  _132
REMARK   60  A    between atoms: _132  and  _133
REMARK   61  A    between atoms: _137  and  _139
REMARK   62  A    between atoms: _139  and  _140
REMARK   63  A    between atoms: _139  and  _142
REMARK   64  A    between atoms: _142  and  _143
REMARK   65  A    between atoms: _153  and  _155
REMARK   66  A    between atoms: _155  and  _156
REMARK   67  A    between atoms: _155  and  _158
REMARK   68  A    between atoms: _158  and  _159
REMARK   69  A    between atoms: _162  and  _164
REMARK   70  A    between atoms: _164  and  _165
REMARK   71  A    between atoms: _164  and  _167
REMARK   72  A    between atoms: _167  and  _168
REMARK   73  A    between atoms: _168  and  _169
REMARK   74  A    between atoms: _169  and  _170
REMARK   75  A    between atoms: _179  and  _181
REMARK   76  A    between atoms: _181  and  _182
REMARK   77  A    between atoms: _181  and  _184
REMARK   78  A    between atoms: _184  and  _185
REMARK   79  A    between atoms: _191  and  _193
REMARK   80  A    between atoms: _193  and  _194
REMARK   81  A    between atoms: _193  and  _196
REMARK   82  A    between atoms: _196  and  _197
REMARK   83  A    between atoms: _200  and  _202
REMARK   84  A    between atoms: _202  and  _203
REMARK   85  A    between atoms: _202  and  _205
REMARK   86  A    between atoms: _205  and  _206
REMARK   87  A    between atoms: _211  and  _213
REMARK   88  A    between atoms: _213  and  _214
REMARK   89  A    between atoms: _213  and  _216
REMARK   90  A    between atoms: _216  and  _217
REMARK   91  A    between atoms: _221  and  _222
REMARK   92  A    between atoms: _227  and  _229
REMARK   93  A    between atoms: _229  and  _230
REMARK   94  A    between atoms: _229  and  _232
REMARK   95  A    between atoms: _232  and  _233
REMARK   96  A    between atoms: _236  and  _238
REMARK   97  A    between atoms: _238  and  _239
REMARK   98  A    between atoms: _238  and  _241
REMARK   99  A    between atoms: _241  and  _242
REMARK  100  A    between atoms: _245  and  _247
REMARK  101  A    between atoms: _247  and  _248
REMARK  102  A    between atoms: _247  and  _250
REMARK  103  A    between atoms: _250  and  _251
REMARK  104  A    between atoms: _254  and  _256
REMARK  105  A    between atoms: _256  and  _257
REMARK  106  A    between atoms: _256  and  _259
REMARK  107  A    between atoms: _259  and  _260
REMARK  108  A    between atoms: _260  and  _261
REMARK  109  A    between atoms: _261  and  _262
REMARK  110  A    between atoms: _262  and  _263
REMARK  111  A    between atoms: _267  and  _269
REMARK  112  A    between atoms: _269  and  _270
REMARK  113  A    between atoms: _269  and  _272
REMARK  114  A    between atoms: _272  and  _273
REMARK  115  A    between atoms: _273  and  _274
REMARK  116  A    between atoms: _277  and  _279
REMARK  117  A    between atoms: _279  and  _280
REMARK  118  A    between atoms: _279  and  _282
REMARK  119  A    between atoms: _282  and  _283
REMARK  120  A    between atoms: _283  and  _284
REMARK  121  A    between atoms: _284  and  _285
REMARK  122  A    between atoms: _294  and  _296
REMARK  123  A    between atoms: _296  and  _297
REMARK  124  A    between atoms: _296  and  _299
REMARK  125  A    between atoms: _299  and  _300
REMARK  126  A    between atoms: _303  and  _305
REMARK  127  A    between atoms: _305  and  _306
REMARK  128  A    between atoms: _310  and  _311
REMARK  129  A    between atoms: _316  and  _318
REMARK  130  A    between atoms: _318  and  _319
REMARK  131  A    between atoms: _322  and  _324
REMARK  132  A    between atoms: _324  and  _325
REMARK  133  A    between atoms: _324  and  _327
REMARK  134  A    between atoms: _327  and  _328
REMARK  135  A    between atoms: _338  and  _340
REMARK  136  A    between atoms: _340  and  _341
REMARK  137  A    between atoms: _340  and  _343
REMARK  138  A    between atoms: _343  and  _344
REMARK  139  A    between atoms: _347  and  _348
REMARK  140  A    between atoms: _353  and  _355
REMARK  141  A    between atoms: _355  and  _356
REMARK  142  A    between atoms: _355  and  _358
REMARK  143  A    between atoms: _358  and  _359
REMARK  144  A    between atoms: _359  and  _360
REMARK  145  A    between atoms: _360  and  _361
REMARK  146  A    between atoms: _370  and  _372
REMARK  147  A    between atoms: _372  and  _373
REMARK  148  A    between atoms: _372  and  _375
REMARK  149  A    between atoms: _375  and  _376
REMARK  150  A    between atoms: _379  and  _381
REMARK  151  A    between atoms: _381  and  _382
REMARK  152  A    between atoms: _381  and  _384
REMARK  153  A    between atoms: _384  and  _385
REMARK  154  A    between atoms: _388  and  _390
REMARK  155  A    between atoms: _390  and  _391
REMARK  156  A    between atoms: _390  and  _393
REMARK  157  A    between atoms: _393  and  _394
REMARK  158  A    between atoms: _397  and  _399
REMARK  159  A    between atoms: _399  and  _400
REMARK  160  A    between atoms: _399  and  _402
REMARK  161  A    between atoms: _402  and  _403
REMARK  162  A    between atoms: _406  and  _408
REMARK  163  A    between atoms: _408  and  _409
REMARK  164  A    between atoms: _408  and  _411
REMARK  165  A    between atoms: _411  and  _412
REMARK  166  A    between atoms: _415  and  _417
REMARK  167  A    between atoms: _417  and  _418
REMARK  168  A    between atoms: _417  and  _420
REMARK  169  A    between atoms: _420  and  _421
REMARK  170  A    between atoms: _424  and  _426
REMARK  171  A    between atoms: _426  and  _427
REMARK  172  A    between atoms: _430  and  _432
REMARK  173  A    between atoms: _432  and  _433
REMARK  174  A    between atoms: _432  and  _435
REMARK  175  A    between atoms: _435  and  _436
REMARK  176  A    between atoms: _439  and  _441
REMARK  177  A    between atoms: _441  and  _442
REMARK  178  A    between atoms: _441  and  _444
REMARK  179  A    between atoms: _444  and  _445
REMARK  180  A    between atoms: _448  and  _450
REMARK  181  A    between atoms: _450  and  _451
REMARK  182  A    between atoms: _450  and  _453
REMARK  183  A    between atoms: _453  and  _454
REMARK  184  A    between atoms: _457  and  _459
REMARK  185  A    between atoms: _459  and  _460
REMARK  186  A    between atoms: _459  and  _462
REMARK  187  A    between atoms: _462  and  _463
REMARK  188  A    between atoms: _463  and  _464
REMARK  189  A    between atoms: _464  and  _465
REMARK  190  A    between atoms: _465  and  _466
REMARK  191  A    between atoms: _470  and  _472
REMARK  192  A    between atoms: _472  and  _473
REMARK  193  A    between atoms: _472  and  _475
REMARK  194  A    between atoms: _475  and  _476
REMARK  195  A    between atoms: _479  and  _481
REMARK  196  A    between atoms: _481  and  _482
REMARK  197  A    between atoms: _481  and  _484
REMARK  198  A    between atoms: _484  and  _485
REMARK  199  A    between atoms: _488  and  _490
REMARK  200  A    between atoms: _490  and  _491
REMARK  201  A    between atoms: _490  and  _493
REMARK  202  A    between atoms: _493  and  _494
REMARK  203  A    between atoms: _498  and  _499
REMARK  204  A    between atoms: _504  and  _506
REMARK  205  A    between atoms: _506  and  _507
REMARK  206  A    between atoms: _506  and  _509
REMARK  207  A    between atoms: _509  and  _510
REMARK  208  A    between atoms: _515  and  _517
REMARK  209  A    between atoms: _517  and  _518
REMARK  210  A    between atoms: _517  and  _520
REMARK  211  A    between atoms: _520  and  _521
REMARK  212  A    between atoms: _521  and  _522
REMARK  213  A    between atoms: _522  and  _523
REMARK  214  A    between atoms: _523  and  _524
REMARK  215  A    between atoms: _528  and  _530
REMARK  216  A    between atoms: _530  and  _531
REMARK  217  A    between atoms: _530  and  _533
REMARK  218  A    between atoms: _533  and  _534
REMARK  219  A    between atoms: _534  and  _535
REMARK  220  A    between atoms: _538  and  _540
REMARK  221  A    between atoms: _540  and  _541
REMARK  222  A    between atoms: _540  and  _543
REMARK  223  A    between atoms: _543  and  _544
REMARK  224  A    between atoms: _547  and  _549
REMARK  225  A    between atoms: _549  and  _550
REMARK  226  A    between atoms: _549  and  _552
REMARK  227  A    between atoms: _552  and  _553
REMARK  228  A    between atoms: _553  and  _554
REMARK  229  A    between atoms: _554  and  _555
REMARK  230  A    between atoms: _564  and  _566
REMARK  231  A    between atoms: _566  and  _567
REMARK  232  A    between atoms: _566  and  _569
REMARK  233  A    between atoms: _569  and  _570
REMARK  234  A    between atoms: _572  and  _574
REMARK  235  A    between atoms: _574  and  _575
REMARK  236  A    between atoms: _574  and  _577
REMARK  237  A    between atoms: _577  and  _578
REMARK  238  A    between atoms: _584  and  _586
REMARK  239  A    between atoms: _586  and  _587
REMARK  240  A    between atoms: _590  and  _592
REMARK  241  A    between atoms: _592  and  _593
REMARK  242  A    between atoms: _592  and  _595
REMARK  243  A    between atoms: _595  and  _596
REMARK  244  A    between atoms: _596  and  _597
REMARK  245  A    between atoms: _600  and  _602
REMARK  246  A    between atoms: _602  and  _603
REMARK  247  A    between atoms: _602  and  _605
REMARK  248  A    between atoms: _605  and  _606
REMARK                            x       y       z     vdW  Elec       q    Type
REMARK                         _______ _______ _______ _____ _____    ______ ____
ROOT
ATOM      1  O   HOH     1     -11.287  28.396 -17.701  0.00  0.00    +0.000 OA
ENDROOT
TORSDOF 0
REMARK  Name = ../refined-set-2016/4pzv/4pzv_pocket.pdb
REMARK  248 active torsions:
REMARK  status: ('A' for Active; 'I' for Inactive)
REMARK    1  A    between atoms: _1  and  _3
REMARK    2  A    between atoms: _3  and  _4
REMARK    3  A    between atoms: _3  and  _6
REMARK    4  A    between atoms: _6  and  _7
REMARK    5  A    between atoms: _10  and  _12
REMARK    6  A    between atoms: _12  and  _13
REMARK    7  A    between atoms: _12  and  _15
REMARK    8  A    between atoms: _15  and  _16
REMARK    9  A    between atoms: _19  and  _21
REMARK   10  A    between atoms: _21  and  _22
REMARK   11  A    between atoms: _24  and  _26
REMARK   12  A    between atoms: _26  and  _27
REMARK   13  A    between atoms: _26  and  _29
REMARK   14  A    between atoms: _29  and  _30
REMARK   15  A    between atoms: _33  and  _35
REMARK   16  A    between atoms: _35  and  _36
REMARK   17  A    between atoms: _38  and  _40
REMARK   18  A    between atoms: _40  and  _41
REMARK   19  A    between atoms: _40  and  _43
REMARK   20  A    between atoms: _43  and  _44
REMARK   21  A    between atoms: _47  and  _49
REMARK   22  A    between atoms: _49  and  _50
REMARK   23  A    between atoms: _49  and  _52
REMARK   24  A    between atoms: _52  and  _53
REMARK   25  A    between atoms: _58  and  _60
REMARK   26  A    between atoms: _60  and  _61
REMARK   27  A    between atoms: _60  and  _63
REMARK   28  A    between atoms: _63  and  _64
REMARK   29  A    between atoms: _69  and  _70
REMARK   30  A    between atoms: _72  and  _74
REMARK   31  A    between atoms: _74  and  _75
REMARK   32  A    between atoms: _74  and  _77
REMARK   33  A    between atoms: _77  and  _78
REMARK   34  A    between atoms: _80  and  _82
REMARK   35  A    between atoms: _82  and  _83
REMARK   36  A    between atoms: _82  and  _85
REMARK   37  A    between atoms: _85  and  _86
REMARK   38  A    between atoms: _88  and  _90
REMARK   39  A    between atoms: _90  and  _91
REMARK   40  A    between atoms: _90  and  _93
REMARK   41  A    between atoms: _93  and  _94
REMARK   42  A    between atoms: _94  and  _95
REMARK   43  A    between atoms: _95  and  _96
REMARK   44  A    between atoms: _96  and  _97
REMARK   45  A    between atoms: _101  and  _103
REMARK   46  A    between atoms: _103  and  _104
REMARK   47  A    between atoms: _107  and  _109
REMARK   48  A    between atoms: _109  and  _110
REMARK   49  A    between atoms: _109  and  _112
REMARK   50  A    between atoms: _115  and  _117
REMARK   51  A    between atoms: _117  and  _118
REMARK   52  A    between atoms: _117  and  _120
REMARK   53  A    between atoms: _120  and  _121
REMARK   54  A    between atoms: _124  and  _126
REMARK   55  A    between atoms: _126  and  _127
REMARK   56  A    between atoms: _126  and  _129
REMARK   57  A    between atoms: _129  and  _130
REMARK   58  A    between atoms: _130  and  _131
REMARK   59  A    between atoms: _131  and  _132
REMARK   60  A    between atoms: _132  and  _133
REMARK   61  A    between atoms: _137  and  _139
REMARK   62  A    between atoms: _139  and  _140
REMARK   63  A    between atoms: _139  and  _142
REMARK   64  A    between atoms: _142  and  _143
REMARK   65  A    between atoms: _153  and  _155
REMARK   66  A    between atoms: _155  and  _156
REMARK   67  A    between atoms: _155  and  _158
REMARK   68  A    between atoms: _158  and  _159
REMARK   69  A    between atoms: _162  and  _164
REMARK   70  A    between atoms: _164  and  _165
REMARK   71  A    between atoms: _164  and  _167
REMARK   72  A    between atoms: _167  and  _168
REMARK   73  A    between atoms: _168  and  _169
REMARK   74  A    between atoms: _169  and  _170
REMARK   75  A    between atoms: _179  and  _181
REMARK   76  A    between atoms: _181  and  _182
REMARK   77  A    between atoms: _181  and  _184
REMARK   78  A    between atoms: _184  and  _185
REMARK   79  A    between atoms: _191  and  _193
REMARK   80  A    between atoms: _193  and  _194
REMARK   81  A    between atoms: _193  and  _196
REMARK   82  A    between atoms: _196  and  _197
REMARK   83  A    between atoms: _200  and  _202
REMARK   84  A    between atoms: _202  and  _203
REMARK   85  A    between atoms: _202  and  _205
REMARK   86  A    between atoms: _205  and  _206
REMARK   87  A    between atoms: _211  and  _213
REMARK   88  A    between atoms: _213  and  _214
REMARK   89  A    between atoms: _213  and  _216
REMARK   90  A    between atoms: _216  and  _217
REMARK   91  A    between atoms: _221  and  _222
REMARK   92  A    between atoms: _227  and  _229
REMARK   93  A    between atoms: _229  and  _230
REMARK   94  A    between atoms: _229  and  _232
REMARK   95  A    between atoms: _232  and  _233
REMARK   96  A    between atoms: _236  and  _238
REMARK   97  A    between atoms: _238  and  _239
REMARK   98  A    between atoms: _238  and  _241
REMARK   99  A    between atoms: _241  and  _242
REMARK  100  A    between atoms: _245  and  _247
REMARK  101  A    between atoms: _247  and  _248
REMARK  102  A    between atoms: _247  and  _250
REMARK  103  A    between atoms: _250  and  _251
REMARK  104  A    between atoms: _254  and  _256
REMARK  105  A    between atoms: _256  and  _257
REMARK  106  A    between atoms: _256  and  _259
REMARK  107  A    between atoms: _259  and  _260
REMARK  108  A    between atoms: _260  and  _261
REMARK  109  A    between atoms: _261  and  _262
REMARK  110  A    between atoms: _262  and  _263
REMARK  111  A    between atoms: _267  and  _269
REMARK  112  A    between atoms: _269  and  _270
REMARK  113  A    between atoms: _269  and  _272
REMARK  114  A    between atoms: _272  and  _273
REMARK  115  A    between atoms: _273  and  _274
REMARK  116  A    between atoms: _277  and  _279
REMARK  117  A    between atoms: _279  and  _280
REMARK  118  A    between atoms: _279  and  _282
REMARK  119  A    between atoms: _282  and  _283
REMARK  120  A    between atoms: _283  and  _284
REMARK  121  A    between atoms: _284  and  _285
REMARK  122  A    between atoms: _294  and  _296
REMARK  123  A    between atoms: _296  and  _297
REMARK  124  A    between atoms: _296  and  _299
REMARK  125  A    between atoms: _299  and  _300
REMARK  126  A    between atoms: _303  and  _305
REMARK  127  A    between atoms: _305  and  _306
REMARK  128  A    between atoms: _310  and  _311
REMARK  129  A    between atoms: _316  and  _318
REMARK  130  A    between atoms: _318  and  _319
REMARK  131  A    between atoms: _322  and  _324
REMARK  132  A    between atoms: _324  and  _325
REMARK  133  A    between atoms: _324  and  _327
REMARK  134  A    between atoms: _327  and  _328
REMARK  135  A    between atoms: _338  and  _340
REMARK  136  A    between atoms: _340  and  _341
REMARK  137  A    between atoms: _340  and  _343
REMARK  138  A    between atoms: _343  and  _344
REMARK  139  A    between atoms: _347  and  _348
REMARK  140  A    between atoms: _353  and  _355
REMARK  141  A    between atoms: _355  and  _356
REMARK  142  A    between atoms: _355  and  _358
REMARK  143  A    between atoms: _358  and  _359
REMARK  144  A    between atoms: _359  and  _360
REMARK  145  A    between atoms: _360  and  _361
REMARK  146  A    between atoms: _370  and  _372
REMARK  147  A    between atoms: _372  and  _373
REMARK  148  A    between atoms: _372  and  _375
REMARK  149  A    between atoms: _375  and  _376
REMARK  150  A    between atoms: _379  and  _381
REMARK  151  A    between atoms: _381  and  _382
REMARK  152  A    between atoms: _381  and  _384
REMARK  153  A    between atoms: _384  and  _385
REMARK  154  A    between atoms: _388  and  _390
REMARK  155  A    between atoms: _390  and  _391
REMARK  156  A    between atoms: _390  and  _393
REMARK  157  A    between atoms: _393  and  _394
REMARK  158  A    between atoms: _397  and  _399
REMARK  159  A    between atoms: _399  and  _400
REMARK  160  A    between atoms: _399  and  _402
REMARK  161  A    between atoms: _402  and  _403
REMARK  162  A    between atoms: _406  and  _408
REMARK  163  A    between atoms: _408  and  _409
REMARK  164  A    between atoms: _408  and  _411
REMARK  165  A    between atoms: _411  and  _412
REMARK  166  A    between atoms: _415  and  _417
REMARK  167  A    between atoms: _417  and  _418
REMARK  168  A    between atoms: _417  and  _420
REMARK  169  A    between atoms: _420  and  _421
REMARK  170  A    between atoms: _424  and  _426
REMARK  171  A    between atoms: _426  and  _427
REMARK  172  A    between atoms: _430  and  _432
REMARK  173  A    between atoms: _432  and  _433
REMARK  174  A    between atoms: _432  and  _435
REMARK  175  A    between atoms: _435  and  _436
REMARK  176  A    between atoms: _439  and  _441
REMARK  177  A    between atoms: _441  and  _442
REMARK  178  A    between atoms: _441  and  _444
REMARK  179  A    between atoms: _444  and  _445
REMARK  180  A    between atoms: _448  and  _450
REMARK  181  A    between atoms: _450  and  _451
REMARK  182  A    between atoms: _450  and  _453
REMARK  183  A    between atoms: _453  and  _454
REMARK  184  A    between atoms: _457  and  _459
REMARK  185  A    between atoms: _459  and  _460
REMARK  186  A    between atoms: _459  and  _462
REMARK  187  A    between atoms: _462  and  _463
REMARK  188  A    between atoms: _463  and  _464
REMARK  189  A    between atoms: _464  and  _465
REMARK  190  A    between atoms: _465  and  _466
REMARK  191  A    between atoms: _470  and  _472
REMARK  192  A    between atoms: _472  and  _473
REMARK  193  A    between atoms: _472  and  _475
REMARK  194  A    between atoms: _475  and  _476
REMARK  195  A    between atoms: _479  and  _481
REMARK  196  A    between atoms: _481  and  _482
REMARK  197  A    between atoms: _481  and  _484
REMARK  198  A    between atoms: _484  and  _485
REMARK  199  A    between atoms: _488  and  _490
REMARK  200  A    between atoms: _490  and  _491
REMARK  201  A    between atoms: _490  and  _493
REMARK  202  A    between atoms: _493  and  _494
REMARK  203  A    between atoms: _498  and  _499
REMARK  204  A    between atoms: _504  and  _506
REMARK  205  A    between atoms: _506  and  _507
REMARK  206  A    between atoms: _506  and  _509
REMARK  207  A    between atoms: _509  and  _510
REMARK  208  A    between atoms: _515  and  _517
REMARK  209  A    between atoms: _517  and  _518
REMARK  210  A    between atoms: _517  and  _520
REMARK  211  A    between atoms: _520  and  _521
REMARK  212  A    between atoms: _521  and  _522
REMARK  213  A    between atoms: _522  and  _523
REMARK  214  A    between atoms: _523  and  _524
REMARK  215  A    between atoms: _528  and  _530
REMARK  216  A    between atoms: _530  and  _531
REMARK  217  A    between atoms: _530  and  _533
REMARK  218  A    between atoms: _533  and  _534
REMARK  219  A    between atoms: _534  and  _535
REMARK  220  A    between atoms: _538  and  _540
REMARK  221  A    between atoms: _540  and  _541
REMARK  222  A    between atoms: _540  and  _543
REMARK  223  A    between atoms: _543  and  _544
REMARK  224  A    between atoms: _547  and  _549
REMARK  225  A    between atoms: _549  and  _550
REMARK  226  A    between atoms: _549  and  _552
REMARK  227  A    between atoms: _552  and  _553
REMARK  228  A    between atoms: _553  and  _554
REMARK  229  A    between atoms: _554  and  _555
REMARK  230  A    between atoms: _564  and  _566
REMARK  231  A    between atoms: _566  and  _567
REMARK  232  A    between atoms: _566  and  _569
REMARK  233  A    between atoms: _569  and  _570
REMARK  234  A    between atoms: _572  and  _574
REMARK  235  A    between atoms: _574  and  _575
REMARK  236  A    between atoms: _574  and  _577
REMARK  237  A    between atoms: _577  and  _578
REMARK  238  A    between atoms: _584  and  _586
REMARK  239  A    between atoms: _586  and  _587
REMARK  240  A    between atoms: _590  and  _592
REMARK  241  A    between atoms: _592  and  _593
REMARK  242  A    between atoms: _592  and  _595
REMARK  243  A    between atoms: _595  and  _596
REMARK  244  A    between atoms: _596  and  _597
REMARK  245  A    between atoms: _600  and  _602
REMARK  246  A    between atoms: _602  and  _603
REMARK  247  A    between atoms: _602  and  _605
REMARK  248  A    between atoms: _605  and  _606
REMARK                            x       y       z     vdW  Elec       q    Type
REMARK                         _______ _______ _______ _____ _____    ______ ____
ROOT
ATOM      1  O   HOH     1      12.939  32.314 -13.499  0.00  0.00    +0.000 OA
ENDROOT
TORSDOF 0
REMARK  Name = ../refined-set-2016/4pzv/4pzv_pocket.pdb
REMARK  248 active torsions:
REMARK  status: ('A' for Active; 'I' for Inactive)
REMARK    1  A    between atoms: _1  and  _3
REMARK    2  A    between atoms: _3  and  _4
REMARK    3  A    between atoms: _3  and  _6
REMARK    4  A    between atoms: _6  and  _7
REMARK    5  A    between atoms: _10  and  _12
REMARK    6  A    between atoms: _12  and  _13
REMARK    7  A    between atoms: _12  and  _15
REMARK    8  A    between atoms: _15  and  _16
REMARK    9  A    between atoms: _19  and  _21
REMARK   10  A    between atoms: _21  and  _22
REMARK   11  A    between atoms: _24  and  _26
REMARK   12  A    between atoms: _26  and  _27
REMARK   13  A    between atoms: _26  and  _29
REMARK   14  A    between atoms: _29  and  _30
REMARK   15  A    between atoms: _33  and  _35
REMARK   16  A    between atoms: _35  and  _36
REMARK   17  A    between atoms: _38  and  _40
REMARK   18  A    between atoms: _40  and  _41
REMARK   19  A    between atoms: _40  and  _43
REMARK   20  A    between atoms: _43  and  _44
REMARK   21  A    between atoms: _47  and  _49
REMARK   22  A    between atoms: _49  and  _50
REMARK   23  A    between atoms: _49  and  _52
REMARK   24  A    between atoms: _52  and  _53
REMARK   25  A    between atoms: _58  and  _60
REMARK   26  A    between atoms: _60  and  _61
REMARK   27  A    between atoms: _60  and  _63
REMARK   28  A    between atoms: _63  and  _64
REMARK   29  A    between atoms: _69  and  _70
REMARK   30  A    between atoms: _72  and  _74
REMARK   31  A    between atoms: _74  and  _75
REMARK   32  A    between atoms: _74  and  _77
REMARK   33  A    between atoms: _77  and  _78
REMARK   34  A    between atoms: _80  and  _82
REMARK   35  A    between atoms: _82  and  _83
REMARK   36  A    between atoms: _82  and  _85
REMARK   37  A    between atoms: _85  and  _86
REMARK   38  A    between atoms: _88  and  _90
REMARK   39  A    between atoms: _90  and  _91
REMARK   40  A    between atoms: _90  and  _93
REMARK   41  A    between atoms: _93  and  _94
REMARK   42  A    between atoms: _94  and  _95
REMARK   43  A    between atoms: _95  and  _96
REMARK   44  A    between atoms: _96  and  _97
REMARK   45  A    between atoms: _101  and  _103
REMARK   46  A    between atoms: _103  and  _104
REMARK   47  A    between atoms: _107  and  _109
REMARK   48  A    between atoms: _109  and  _110
REMARK   49  A    between atoms: _109  and  _112
REMARK   50  A    between atoms: _115  and  _117
REMARK   51  A    between atoms: _117  and  _118
REMARK   52  A    between atoms: _117  and  _120
REMARK   53  A    between atoms: _120  and  _121
REMARK   54  A    between atoms: _124  and  _126
REMARK   55  A    between atoms: _126  and  _127
REMARK   56  A    between atoms: _126  and  _129
REMARK   57  A    between atoms: _129  and  _130
REMARK   58  A    between atoms: _130  and  _131
REMARK   59  A    between atoms: _131  and  _132
REMARK   60  A    between atoms: _132  and  _133
REMARK   61  A    between atoms: _137  and  _139
REMARK   62  A    between atoms: _139  and  _140
REMARK   63  A    between atoms: _139  and  _142
REMARK   64  A    between atoms: _142  and  _143
REMARK   65  A    between atoms: _153  and  _155
REMARK   66  A    between atoms: _155  and  _156
REMARK   67  A    between atoms: _155  and  _158
REMARK   68  A    between atoms: _158  and  _159
REMARK   69  A    between atoms: _162  and  _164
REMARK   70  A    between atoms: _164  and  _165
REMARK   71  A    between atoms: _164  and  _167
REMARK   72  A    between atoms: _167  and  _168
REMARK   73  A    between atoms: _168  and  _169
REMARK   74  A    between atoms: _169  and  _170
REMARK   75  A    between atoms: _179  and  _181
REMARK   76  A    between atoms: _181  and  _182
REMARK   77  A    between atoms: _181  and  _184
REMARK   78  A    between atoms: _184  and  _185
REMARK   79  A    between atoms: _191  and  _193
REMARK   80  A    between atoms: _193  and  _194
REMARK   81  A    between atoms: _193  and  _196
REMARK   82  A    between atoms: _196  and  _197
REMARK   83  A    between atoms: _200  and  _202
REMARK   84  A    between atoms: _202  and  _203
REMARK   85  A    between atoms: _202  and  _205
REMARK   86  A    between atoms: _205  and  _206
REMARK   87  A    between atoms: _211  and  _213
REMARK   88  A    between atoms: _213  and  _214
REMARK   89  A    between atoms: _213  and  _216
REMARK   90  A    between atoms: _216  and  _217
REMARK   91  A    between atoms: _221  and  _222
REMARK   92  A    between atoms: _227  and  _229
REMARK   93  A    between atoms: _229  and  _230
REMARK   94  A    between atoms: _229  and  _232
REMARK   95  A    between atoms: _232  and  _233
REMARK   96  A    between atoms: _236  and  _238
REMARK   97  A    between atoms: _238  and  _239
REMARK   98  A    between atoms: _238  and  _241
REMARK   99  A    between atoms: _241  and  _242
REMARK  100  A    between atoms: _245  and  _247
REMARK  101  A    between atoms: _247  and  _248
REMARK  102  A    between atoms: _247  and  _250
REMARK  103  A    between atoms: _250  and  _251
REMARK  104  A    between atoms: _254  and  _256
REMARK  105  A    between atoms: _256  and  _257
REMARK  106  A    between atoms: _256  and  _259
REMARK  107  A    between atoms: _259  and  _260
REMARK  108  A    between atoms: _260  and  _261
REMARK  109  A    between atoms: _261  and  _262
REMARK  110  A    between atoms: _262  and  _263
REMARK  111  A    between atoms: _267  and  _269
REMARK  112  A    between atoms: _269  and  _270
REMARK  113  A    between atoms: _269  and  _272
REMARK  114  A    between atoms: _272  and  _273
REMARK  115  A    between atoms: _273  and  _274
REMARK  116  A    between atoms: _277  and  _279
REMARK  117  A    between atoms: _279  and  _280
REMARK  118  A    between atoms: _279  and  _282
REMARK  119  A    between atoms: _282  and  _283
REMARK  120  A    between atoms: _283  and  _284
REMARK  121  A    between atoms: _284  and  _285
REMARK  122  A    between atoms: _294  and  _296
REMARK  123  A    between atoms: _296  and  _297
REMARK  124  A    between atoms: _296  and  _299
REMARK  125  A    between atoms: _299  and  _300
REMARK  126  A    between atoms: _303  and  _305
REMARK  127  A    between atoms: _305  and  _306
REMARK  128  A    between atoms: _310  and  _311
REMARK  129  A    between atoms: _316  and  _318
REMARK  130  A    between atoms: _318  and  _319
REMARK  131  A    between atoms: _322  and  _324
REMARK  132  A    between atoms: _324  and  _325
REMARK  133  A    between atoms: _324  and  _327
REMARK  134  A    between atoms: _327  and  _328
REMARK  135  A    between atoms: _338  and  _340
REMARK  136  A    between atoms: _340  and  _341
REMARK  137  A    between atoms: _340  and  _343
REMARK  138  A    between atoms: _343  and  _344
REMARK  139  A    between atoms: _347  and  _348
REMARK  140  A    between atoms: _353  and  _355
REMARK  141  A    between atoms: _355  and  _356
REMARK  142  A    between atoms: _355  and  _358
REMARK  143  A    between atoms: _358  and  _359
REMARK  144  A    between atoms: _359  and  _360
REMARK  145  A    between atoms: _360  and  _361
REMARK  146  A    between atoms: _370  and  _372
REMARK  147  A    between atoms: _372  and  _373
REMARK  148  A    between atoms: _372  and  _375
REMARK  149  A    between atoms: _375  and  _376
REMARK  150  A    between atoms: _379  and  _381
REMARK  151  A    between atoms: _381  and  _382
REMARK  152  A    between atoms: _381  and  _384
REMARK  153  A    between atoms: _384  and  _385
REMARK  154  A    between atoms: _388  and  _390
REMARK  155  A    between atoms: _390  and  _391
REMARK  156  A    between atoms: _390  and  _393
REMARK  157  A    between atoms: _393  and  _394
REMARK  158  A    between atoms: _397  and  _399
REMARK  159  A    between atoms: _399  and  _400
REMARK  160  A    between atoms: _399  and  _402
REMARK  161  A    between atoms: _402  and  _403
REMARK  162  A    between atoms: _406  and  _408
REMARK  163  A    between atoms: _408  and  _409
REMARK  164  A    between atoms: _408  and  _411
REMARK  165  A    between atoms: _411  and  _412
REMARK  166  A    between atoms: _415  and  _417
REMARK  167  A    between atoms: _417  and  _418
REMARK  168  A    between atoms: _417  and  _420
REMARK  169  A    between atoms: _420  and  _421
REMARK  170  A    between atoms: _424  and  _426
REMARK  171  A    between atoms: _426  and  _427
REMARK  172  A    between atoms: _430  and  _432
REMARK  173  A    between atoms: _432  and  _433
REMARK  174  A    between atoms: _432  and  _435
REMARK  175  A    between atoms: _435  and  _436
REMARK  176  A    between atoms: _439  and  _441
REMARK  177  A    between atoms: _441  and  _442
REMARK  178  A    between atoms: _441  and  _444
REMARK  179  A    between atoms: _444  and  _445
REMARK  180  A    between atoms: _448  and  _450
REMARK  181  A    between atoms: _450  and  _451
REMARK  182  A    between atoms: _450  and  _453
REMARK  183  A    between atoms: _453  and  _454
REMARK  184  A    between atoms: _457  and  _459
REMARK  185  A    between atoms: _459  and  _460
REMARK  186  A    between atoms: _459  and  _462
REMARK  187  A    between atoms: _462  and  _463
REMARK  188  A    between atoms: _463  and  _464
REMARK  189  A    between atoms: _464  and  _465
REMARK  190  A    between atoms: _465  and  _466
REMARK  191  A    between atoms: _470  and  _472
REMARK  192  A    between atoms: _472  and  _473
REMARK  193  A    between atoms: _472  and  _475
REMARK  194  A    between atoms: _475  and  _476
REMARK  195  A    between atoms: _479  and  _481
REMARK  196  A    between atoms: _481  and  _482
REMARK  197  A    between atoms: _481  and  _484
REMARK  198  A    between atoms: _484  and  _485
REMARK  199  A    between atoms: _488  and  _490
REMARK  200  A    between atoms: _490  and  _491
REMARK  201  A    between atoms: _490  and  _493
REMARK  202  A    between atoms: _493  and  _494
REMARK  203  A    between atoms: _498  and  _499
REMARK  204  A    between atoms: _504  and  _506
REMARK  205  A    between atoms: _506  and  _507
REMARK  206  A    between atoms: _506  and  _509
REMARK  207  A    between atoms: _509  and  _510
REMARK  208  A    between atoms: _515  and  _517
REMARK  209  A    between atoms: _517  and  _518
REMARK  210  A    between atoms: _517  and  _520
REMARK  211  A    between atoms: _520  and  _521
REMARK  212  A    between atoms: _521  and  _522
REMARK  213  A    between atoms: _522  and  _523
REMARK  214  A    between atoms: _523  and  _524
REMARK  215  A    between atoms: _528  and  _530
REMARK  216  A    between atoms: _530  and  _531
REMARK  217  A    between atoms: _530  and  _533
REMARK  218  A    between atoms: _533  and  _534
REMARK  219  A    between atoms: _534  and  _535
REMARK  220  A    between atoms: _538  and  _540
REMARK  221  A    between atoms: _540  and  _541
REMARK  222  A    between atoms: _540  and  _543
REMARK  223  A    between atoms: _543  and  _544
REMARK  224  A    between atoms: _547  and  _549
REMARK  225  A    between atoms: _549  and  _550
REMARK  226  A    between atoms: _549  and  _552
REMARK  227  A    between atoms: _552  and  _553
REMARK  228  A    between atoms: _553  and  _554
REMARK  229  A    between atoms: _554  and  _555
REMARK  230  A    between atoms: _564  and  _566
REMARK  231  A    between atoms: _566  and  _567
REMARK  232  A    between atoms: _566  and  _569
REMARK  233  A    between atoms: _569  and  _570
REMARK  234  A    between atoms: _572  and  _574
REMARK  235  A    between atoms: _574  and  _575
REMARK  236  A    between atoms: _574  and  _577
REMARK  237  A    between atoms: _577  and  _578
REMARK  238  A    between atoms: _584  and  _586
REMARK  239  A    between atoms: _586  and  _587
REMARK  240  A    between atoms: _590  and  _592
REMARK  241  A    between atoms: _592  and  _593
REMARK  242  A    between atoms: _592  and  _595
REMARK  243  A    between atoms: _595  and  _596
REMARK  244  A    between atoms: _596  and  _597
REMARK  245  A    between atoms: _600  and  _602
REMARK  246  A    between atoms: _602  and  _603
REMARK  247  A    between atoms: _602  and  _605
REMARK  248  A    between atoms: _605  and  _606
REMARK                            x       y       z     vdW  Elec       q    Type
REMARK                         _______ _______ _______ _____ _____    ______ ____
ROOT
ATOM      1  O   HOH     1      -1.618  29.476 -18.995  0.00  0.00    +0.000 OA
ENDROOT
TORSDOF 0
REMARK  Name = ../refined-set-2016/4pzv/4pzv_pocket.pdb
REMARK  248 active torsions:
REMARK  status: ('A' for Active; 'I' for Inactive)
REMARK    1  A    between atoms: _1  and  _3
REMARK    2  A    between atoms: _3  and  _4
REMARK    3  A    between atoms: _3  and  _6
REMARK    4  A    between atoms: _6  and  _7
REMARK    5  A    between atoms: _10  and  _12
REMARK    6  A    between atoms: _12  and  _13
REMARK    7  A    between atoms: _12  and  _15
REMARK    8  A    between atoms: _15  and  _16
REMARK    9  A    between atoms: _19  and  _21
REMARK   10  A    between atoms: _21  and  _22
REMARK   11  A    between atoms: _24  and  _26
REMARK   12  A    between atoms: _26  and  _27
REMARK   13  A    between atoms: _26  and  _29
REMARK   14  A    between atoms: _29  and  _30
REMARK   15  A    between atoms: _33  and  _35
REMARK   16  A    between atoms: _35  and  _36
REMARK   17  A    between atoms: _38  and  _40
REMARK   18  A    between atoms: _40  and  _41
REMARK   19  A    between atoms: _40  and  _43
REMARK   20  A    between atoms: _43  and  _44
REMARK   21  A    between atoms: _47  and  _49
REMARK   22  A    between atoms: _49  and  _50
REMARK   23  A    between atoms: _49  and  _52
REMARK   24  A    between atoms: _52  and  _53
REMARK   25  A    between atoms: _58  and  _60
REMARK   26  A    between atoms: _60  and  _61
REMARK   27  A    between atoms: _60  and  _63
REMARK   28  A    between atoms: _63  and  _64
REMARK   29  A    between atoms: _69  and  _70
REMARK   30  A    between atoms: _72  and  _74
REMARK   31  A    between atoms: _74  and  _75
REMARK   32  A    between atoms: _74  and  _77
REMARK   33  A    between atoms: _77  and  _78
REMARK   34  A    between atoms: _80  and  _82
REMARK   35  A    between atoms: _82  and  _83
REMARK   36  A    between atoms: _82  and  _85
REMARK   37  A    between atoms: _85  and  _86
REMARK   38  A    between atoms: _88  and  _90
REMARK   39  A    between atoms: _90  and  _91
REMARK   40  A    between atoms: _90  and  _93
REMARK   41  A    between atoms: _93  and  _94
REMARK   42  A    between atoms: _94  and  _95
REMARK   43  A    between atoms: _95  and  _96
REMARK   44  A    between atoms: _96  and  _97
REMARK   45  A    between atoms: _101  and  _103
REMARK   46  A    between atoms: _103  and  _104
REMARK   47  A    between atoms: _107  and  _109
REMARK   48  A    between atoms: _109  and  _110
REMARK   49  A    between atoms: _109  and  _112
REMARK   50  A    between atoms: _115  and  _117
REMARK   51  A    between atoms: _117  and  _118
REMARK   52  A    between atoms: _117  and  _120
REMARK   53  A    between atoms: _120  and  _121
REMARK   54  A    between atoms: _124  and  _126
REMARK   55  A    between atoms: _126  and  _127
REMARK   56  A    between atoms: _126  and  _129
REMARK   57  A    between atoms: _129  and  _130
REMARK   58  A    between atoms: _130  and  _131
REMARK   59  A    between atoms: _131  and  _132
REMARK   60  A    between atoms: _132  and  _133
REMARK   61  A    between atoms: _137  and  _139
REMARK   62  A    between atoms: _139  and  _140
REMARK   63  A    between atoms: _139  and  _142
REMARK   64  A    between atoms: _142  and  _143
REMARK   65  A    between atoms: _153  and  _155
REMARK   66  A    between atoms: _155  and  _156
REMARK   67  A    between atoms: _155  and  _158
REMARK   68  A    between atoms: _158  and  _159
REMARK   69  A    between atoms: _162  and  _164
REMARK   70  A    between atoms: _164  and  _165
REMARK   71  A    between atoms: _164  and  _167
REMARK   72  A    between atoms: _167  and  _168
REMARK   73  A    between atoms: _168  and  _169
REMARK   74  A    between atoms: _169  and  _170
REMARK   75  A    between atoms: _179  and  _181
REMARK   76  A    between atoms: _181  and  _182
REMARK   77  A    between atoms: _181  and  _184
REMARK   78  A    between atoms: _184  and  _185
REMARK   79  A    between atoms: _191  and  _193
REMARK   80  A    between atoms: _193  and  _194
REMARK   81  A    between atoms: _193  and  _196
REMARK   82  A    between atoms: _196  and  _197
REMARK   83  A    between atoms: _200  and  _202
REMARK   84  A    between atoms: _202  and  _203
REMARK   85  A    between atoms: _202  and  _205
REMARK   86  A    between atoms: _205  and  _206
REMARK   87  A    between atoms: _211  and  _213
REMARK   88  A    between atoms: _213  and  _214
REMARK   89  A    between atoms: _213  and  _216
REMARK   90  A    between atoms: _216  and  _217
REMARK   91  A    between atoms: _221  and  _222
REMARK   92  A    between atoms: _227  and  _229
REMARK   93  A    between atoms: _229  and  _230
REMARK   94  A    between atoms: _229  and  _232
REMARK   95  A    between atoms: _232  and  _233
REMARK   96  A    between atoms: _236  and  _238
REMARK   97  A    between atoms: _238  and  _239
REMARK   98  A    between atoms: _238  and  _241
REMARK   99  A    between atoms: _241  and  _242
REMARK  100  A    between atoms: _245  and  _247
REMARK  101  A    between atoms: _247  and  _248
REMARK  102  A    between atoms: _247  and  _250
REMARK  103  A    between atoms: _250  and  _251
REMARK  104  A    between atoms: _254  and  _256
REMARK  105  A    between atoms: _256  and  _257
REMARK  106  A    between atoms: _256  and  _259
REMARK  107  A    between atoms: _259  and  _260
REMARK  108  A    between atoms: _260  and  _261
REMARK  109  A    between atoms: _261  and  _262
REMARK  110  A    between atoms: _262  and  _263
REMARK  111  A    between atoms: _267  and  _269
REMARK  112  A    between atoms: _269  and  _270
REMARK  113  A    between atoms: _269  and  _272
REMARK  114  A    between atoms: _272  and  _273
REMARK  115  A    between atoms: _273  and  _274
REMARK  116  A    between atoms: _277  and  _279
REMARK  117  A    between atoms: _279  and  _280
REMARK  118  A    between atoms: _279  and  _282
REMARK  119  A    between atoms: _282  and  _283
REMARK  120  A    between atoms: _283  and  _284
REMARK  121  A    between atoms: _284  and  _285
REMARK  122  A    between atoms: _294  and  _296
REMARK  123  A    between atoms: _296  and  _297
REMARK  124  A    between atoms: _296  and  _299
REMARK  125  A    between atoms: _299  and  _300
REMARK  126  A    between atoms: _303  and  _305
REMARK  127  A    between atoms: _305  and  _306
REMARK  128  A    between atoms: _310  and  _311
REMARK  129  A    between atoms: _316  and  _318
REMARK  130  A    between atoms: _318  and  _319
REMARK  131  A    between atoms: _322  and  _324
REMARK  132  A    between atoms: _324  and  _325
REMARK  133  A    between atoms: _324  and  _327
REMARK  134  A    between atoms: _327  and  _328
REMARK  135  A    between atoms: _338  and  _340
REMARK  136  A    between atoms: _340  and  _341
REMARK  137  A    between atoms: _340  and  _343
REMARK  138  A    between atoms: _343  and  _344
REMARK  139  A    between atoms: _347  and  _348
REMARK  140  A    between atoms: _353  and  _355
REMARK  141  A    between atoms: _355  and  _356
REMARK  142  A    between atoms: _355  and  _358
REMARK  143  A    between atoms: _358  and  _359
REMARK  144  A    between atoms: _359  and  _360
REMARK  145  A    between atoms: _360  and  _361
REMARK  146  A    between atoms: _370  and  _372
REMARK  147  A    between atoms: _372  and  _373
REMARK  148  A    between atoms: _372  and  _375
REMARK  149  A    between atoms: _375  and  _376
REMARK  150  A    between atoms: _379  and  _381
REMARK  151  A    between atoms: _381  and  _382
REMARK  152  A    between atoms: _381  and  _384
REMARK  153  A    between atoms: _384  and  _385
REMARK  154  A    between atoms: _388  and  _390
REMARK  155  A    between atoms: _390  and  _391
REMARK  156  A    between atoms: _390  and  _393
REMARK  157  A    between atoms: _393  and  _394
REMARK  158  A    between atoms: _397  and  _399
REMARK  159  A    between atoms: _399  and  _400
REMARK  160  A    between atoms: _399  and  _402
REMARK  161  A    between atoms: _402  and  _403
REMARK  162  A    between atoms: _406  and  _408
REMARK  163  A    between atoms: _408  and  _409
REMARK  164  A    between atoms: _408  and  _411
REMARK  165  A    between atoms: _411  and  _412
REMARK  166  A    between atoms: _415  and  _417
REMARK  167  A    between atoms: _417  and  _418
REMARK  168  A    between atoms: _417  and  _420
REMARK  169  A    between atoms: _420  and  _421
REMARK  170  A    between atoms: _424  and  _426
REMARK  171  A    between atoms: _426  and  _427
REMARK  172  A    between atoms: _430  and  _432
REMARK  173  A    between atoms: _432  and  _433
REMARK  174  A    between atoms: _432  and  _435
REMARK  175  A    between atoms: _435  and  _436
REMARK  176  A    between atoms: _439  and  _441
REMARK  177  A    between atoms: _441  and  _442
REMARK  178  A    between atoms: _441  and  _444
REMARK  179  A    between atoms: _444  and  _445
REMARK  180  A    between atoms: _448  and  _450
REMARK  181  A    between atoms: _450  and  _451
REMARK  182  A    between atoms: _450  and  _453
REMARK  183  A    between atoms: _453  and  _454
REMARK  184  A    between atoms: _457  and  _459
REMARK  185  A    between atoms: _459  and  _460
REMARK  186  A    between atoms: _459  and  _462
REMARK  187  A    between atoms: _462  and  _463
REMARK  188  A    between atoms: _463  and  _464
REMARK  189  A    between atoms: _464  and  _465
REMARK  190  A    between atoms: _465  and  _466
REMARK  191  A    between atoms: _470  and  _472
REMARK  192  A    between atoms: _472  and  _473
REMARK  193  A    between atoms: _472  and  _475
REMARK  194  A    between atoms: _475  and  _476
REMARK  195  A    between atoms: _479  and  _481
REMARK  196  A    between atoms: _481  and  _482
REMARK  197  A    between atoms: _481  and  _484
REMARK  198  A    between atoms: _484  and  _485
REMARK  199  A    between atoms: _488  and  _490
REMARK  200  A    between atoms: _490  and  _491
REMARK  201  A    between atoms: _490  and  _493
REMARK  202  A    between atoms: _493  and  _494
REMARK  203  A    between atoms: _498  and  _499
REMARK  204  A    between atoms: _504  and  _506
REMARK  205  A    between atoms: _506  and  _507
REMARK  206  A    between atoms: _506  and  _509
REMARK  207  A    between atoms: _509  and  _510
REMARK  208  A    between atoms: _515  and  _517
REMARK  209  A    between atoms: _517  and  _518
REMARK  210  A    between atoms: _517  and  _520
REMARK  211  A    between atoms: _520  and  _521
REMARK  212  A    between atoms: _521  and  _522
REMARK  213  A    between atoms: _522  and  _523
REMARK  214  A    between atoms: _523  and  _524
REMARK  215  A    between atoms: _528  and  _530
REMARK  216  A    between atoms: _530  and  _531
REMARK  217  A    between atoms: _530  and  _533
REMARK  218  A    between atoms: _533  and  _534
REMARK  219  A    between atoms: _534  and  _535
REMARK  220  A    between atoms: _538  and  _540
REMARK  221  A    between atoms: _540  and  _541
REMARK  222  A    between atoms: _540  and  _543
REMARK  223  A    between atoms: _543  and  _544
REMARK  224  A    between atoms: _547  and  _549
REMARK  225  A    between atoms: _549  and  _550
REMARK  226  A    between atoms: _549  and  _552
REMARK  227  A    between atoms: _552  and  _553
REMARK  228  A    between atoms: _553  and  _554
REMARK  229  A    between atoms: _554  and  _555
REMARK  230  A    between atoms: _564  and  _566
REMARK  231  A    between atoms: _566  and  _567
REMARK  232  A    between atoms: _566  and  _569
REMARK  233  A    between atoms: _569  and  _570
REMARK  234  A    between atoms: _572  and  _574
REMARK  235  A    between atoms: _574  and  _575
REMARK  236  A    between atoms: _574  and  _577
REMARK  237  A    between atoms: _577  and  _578
REMARK  238  A    between atoms: _584  and  _586
REMARK  239  A    between atoms: _586  and  _587
REMARK  240  A    between atoms: _590  and  _592
REMARK  241  A    between atoms: _592  and  _593
REMARK  242  A    between atoms: _592  and  _595
REMARK  243  A    between atoms: _595  and  _596
REMARK  244  A    between atoms: _596  and  _597
REMARK  245  A    between atoms: _600  and  _602
REMARK  246  A    between atoms: _602  and  _603
REMARK  247  A    between atoms: _602  and  _605
REMARK  248  A    between atoms: _605  and  _606
REMARK                            x       y       z     vdW  Elec       q    Type
REMARK                         _______ _______ _______ _____ _____    ______ ____
ROOT
ATOM      1  O   HOH     1       6.137  35.011  -6.063  0.00  0.00    +0.000 OA
ENDROOT
TORSDOF 0
REMARK  Name = ../refined-set-2016/4pzv/4pzv_pocket.pdb
REMARK  248 active torsions:
REMARK  status: ('A' for Active; 'I' for Inactive)
REMARK    1  A    between atoms: _1  and  _3
REMARK    2  A    between atoms: _3  and  _4
REMARK    3  A    between atoms: _3  and  _6
REMARK    4  A    between atoms: _6  and  _7
REMARK    5  A    between atoms: _10  and  _12
REMARK    6  A    between atoms: _12  and  _13
REMARK    7  A    between atoms: _12  and  _15
REMARK    8  A    between atoms: _15  and  _16
REMARK    9  A    between atoms: _19  and  _21
REMARK   10  A    between atoms: _21  and  _22
REMARK   11  A    between atoms: _24  and  _26
REMARK   12  A    between atoms: _26  and  _27
REMARK   13  A    between atoms: _26  and  _29
REMARK   14  A    between atoms: _29  and  _30
REMARK   15  A    between atoms: _33  and  _35
REMARK   16  A    between atoms: _35  and  _36
REMARK   17  A    between atoms: _38  and  _40
REMARK   18  A    between atoms: _40  and  _41
REMARK   19  A    between atoms: _40  and  _43
REMARK   20  A    between atoms: _43  and  _44
REMARK   21  A    between atoms: _47  and  _49
REMARK   22  A    between atoms: _49  and  _50
REMARK   23  A    between atoms: _49  and  _52
REMARK   24  A    between atoms: _52  and  _53
REMARK   25  A    between atoms: _58  and  _60
REMARK   26  A    between atoms: _60  and  _61
REMARK   27  A    between atoms: _60  and  _63
REMARK   28  A    between atoms: _63  and  _64
REMARK   29  A    between atoms: _69  and  _70
REMARK   30  A    between atoms: _72  and  _74
REMARK   31  A    between atoms: _74  and  _75
REMARK   32  A    between atoms: _74  and  _77
REMARK   33  A    between atoms: _77  and  _78
REMARK   34  A    between atoms: _80  and  _82
REMARK   35  A    between atoms: _82  and  _83
REMARK   36  A    between atoms: _82  and  _85
REMARK   37  A    between atoms: _85  and  _86
REMARK   38  A    between atoms: _88  and  _90
REMARK   39  A    between atoms: _90  and  _91
REMARK   40  A    between atoms: _90  and  _93
REMARK   41  A    between atoms: _93  and  _94
REMARK   42  A    between atoms: _94  and  _95
REMARK   43  A    between atoms: _95  and  _96
REMARK   44  A    between atoms: _96  and  _97
REMARK   45  A    between atoms: _101  and  _103
REMARK   46  A    between atoms: _103  and  _104
REMARK   47  A    between atoms: _107  and  _109
REMARK   48  A    between atoms: _109  and  _110
REMARK   49  A    between atoms: _109  and  _112
REMARK   50  A    between atoms: _115  and  _117
REMARK   51  A    between atoms: _117  and  _118
REMARK   52  A    between atoms: _117  and  _120
REMARK   53  A    between atoms: _120  and  _121
REMARK   54  A    between atoms: _124  and  _126
REMARK   55  A    between atoms: _126  and  _127
REMARK   56  A    between atoms: _126  and  _129
REMARK   57  A    between atoms: _129  and  _130
REMARK   58  A    between atoms: _130  and  _131
REMARK   59  A    between atoms: _131  and  _132
REMARK   60  A    between atoms: _132  and  _133
REMARK   61  A    between atoms: _137  and  _139
REMARK   62  A    between atoms: _139  and  _140
REMARK   63  A    between atoms: _139  and  _142
REMARK   64  A    between atoms: _142  and  _143
REMARK   65  A    between atoms: _153  and  _155
REMARK   66  A    between atoms: _155  and  _156
REMARK   67  A    between atoms: _155  and  _158
REMARK   68  A    between atoms: _158  and  _159
REMARK   69  A    between atoms: _162  and  _164
REMARK   70  A    between atoms: _164  and  _165
REMARK   71  A    between atoms: _164  and  _167
REMARK   72  A    between atoms: _167  and  _168
REMARK   73  A    between atoms: _168  and  _169
REMARK   74  A    between atoms: _169  and  _170
REMARK   75  A    between atoms: _179  and  _181
REMARK   76  A    between atoms: _181  and  _182
REMARK   77  A    between atoms: _181  and  _184
REMARK   78  A    between atoms: _184  and  _185
REMARK   79  A    between atoms: _191  and  _193
REMARK   80  A    between atoms: _193  and  _194
REMARK   81  A    between atoms: _193  and  _196
REMARK   82  A    between atoms: _196  and  _197
REMARK   83  A    between atoms: _200  and  _202
REMARK   84  A    between atoms: _202  and  _203
REMARK   85  A    between atoms: _202  and  _205
REMARK   86  A    between atoms: _205  and  _206
REMARK   87  A    between atoms: _211  and  _213
REMARK   88  A    between atoms: _213  and  _214
REMARK   89  A    between atoms: _213  and  _216
REMARK   90  A    between atoms: _216  and  _217
REMARK   91  A    between atoms: _221  and  _222
REMARK   92  A    between atoms: _227  and  _229
REMARK   93  A    between atoms: _229  and  _230
REMARK   94  A    between atoms: _229  and  _232
REMARK   95  A    between atoms: _232  and  _233
REMARK   96  A    between atoms: _236  and  _238
REMARK   97  A    between atoms: _238  and  _239
REMARK   98  A    between atoms: _238  and  _241
REMARK   99  A    between atoms: _241  and  _242
REMARK  100  A    between atoms: _245  and  _247
REMARK  101  A    between atoms: _247  and  _248
REMARK  102  A    between atoms: _247  and  _250
REMARK  103  A    between atoms: _250  and  _251
REMARK  104  A    between atoms: _254  and  _256
REMARK  105  A    between atoms: _256  and  _257
REMARK  106  A    between atoms: _256  and  _259
REMARK  107  A    between atoms: _259  and  _260
REMARK  108  A    between atoms: _260  and  _261
REMARK  109  A    between atoms: _261  and  _262
REMARK  110  A    between atoms: _262  and  _263
REMARK  111  A    between atoms: _267  and  _269
REMARK  112  A    between atoms: _269  and  _270
REMARK  113  A    between atoms: _269  and  _272
REMARK  114  A    between atoms: _272  and  _273
REMARK  115  A    between atoms: _273  and  _274
REMARK  116  A    between atoms: _277  and  _279
REMARK  117  A    between atoms: _279  and  _280
REMARK  118  A    between atoms: _279  and  _282
REMARK  119  A    between atoms: _282  and  _283
REMARK  120  A    between atoms: _283  and  _284
REMARK  121  A    between atoms: _284  and  _285
REMARK  122  A    between atoms: _294  and  _296
REMARK  123  A    between atoms: _296  and  _297
REMARK  124  A    between atoms: _296  and  _299
REMARK  125  A    between atoms: _299  and  _300
REMARK  126  A    between atoms: _303  and  _305
REMARK  127  A    between atoms: _305  and  _306
REMARK  128  A    between atoms: _310  and  _311
REMARK  129  A    between atoms: _316  and  _318
REMARK  130  A    between atoms: _318  and  _319
REMARK  131  A    between atoms: _322  and  _324
REMARK  132  A    between atoms: _324  and  _325
REMARK  133  A    between atoms: _324  and  _327
REMARK  134  A    between atoms: _327  and  _328
REMARK  135  A    between atoms: _338  and  _340
REMARK  136  A    between atoms: _340  and  _341
REMARK  137  A    between atoms: _340  and  _343
REMARK  138  A    between atoms: _343  and  _344
REMARK  139  A    between atoms: _347  and  _348
REMARK  140  A    between atoms: _353  and  _355
REMARK  141  A    between atoms: _355  and  _356
REMARK  142  A    between atoms: _355  and  _358
REMARK  143  A    between atoms: _358  and  _359
REMARK  144  A    between atoms: _359  and  _360
REMARK  145  A    between atoms: _360  and  _361
REMARK  146  A    between atoms: _370  and  _372
REMARK  147  A    between atoms: _372  and  _373
REMARK  148  A    between atoms: _372  and  _375
REMARK  149  A    between atoms: _375  and  _376
REMARK  150  A    between atoms: _379  and  _381
REMARK  151  A    between atoms: _381  and  _382
REMARK  152  A    between atoms: _381  and  _384
REMARK  153  A    between atoms: _384  and  _385
REMARK  154  A    between atoms: _388  and  _390
REMARK  155  A    between atoms: _390  and  _391
REMARK  156  A    between atoms: _390  and  _393
REMARK  157  A    between atoms: _393  and  _394
REMARK  158  A    between atoms: _397  and  _399
REMARK  159  A    between atoms: _399  and  _400
REMARK  160  A    between atoms: _399  and  _402
REMARK  161  A    between atoms: _402  and  _403
REMARK  162  A    between atoms: _406  and  _408
REMARK  163  A    between atoms: _408  and  _409
REMARK  164  A    between atoms: _408  and  _411
REMARK  165  A    between atoms: _411  and  _412
REMARK  166  A    between atoms: _415  and  _417
REMARK  167  A    between atoms: _417  and  _418
REMARK  168  A    between atoms: _417  and  _420
REMARK  169  A    between atoms: _420  and  _421
REMARK  170  A    between atoms: _424  and  _426
REMARK  171  A    between atoms: _426  and  _427
REMARK  172  A    between atoms: _430  and  _432
REMARK  173  A    between atoms: _432  and  _433
REMARK  174  A    between atoms: _432  and  _435
REMARK  175  A    between atoms: _435  and  _436
REMARK  176  A    between atoms: _439  and  _441
REMARK  177  A    between atoms: _441  and  _442
REMARK  178  A    between atoms: _441  and  _444
REMARK  179  A    between atoms: _444  and  _445
REMARK  180  A    between atoms: _448  and  _450
REMARK  181  A    between atoms: _450  and  _451
REMARK  182  A    between atoms: _450  and  _453
REMARK  183  A    between atoms: _453  and  _454
REMARK  184  A    between atoms: _457  and  _459
REMARK  185  A    between atoms: _459  and  _460
REMARK  186  A    between atoms: _459  and  _462
REMARK  187  A    between atoms: _462  and  _463
REMARK  188  A    between atoms: _463  and  _464
REMARK  189  A    between atoms: _464  and  _465
REMARK  190  A    between atoms: _465  and  _466
REMARK  191  A    between atoms: _470  and  _472
REMARK  192  A    between atoms: _472  and  _473
REMARK  193  A    between atoms: _472  and  _475
REMARK  194  A    between atoms: _475  and  _476
REMARK  195  A    between atoms: _479  and  _481
REMARK  196  A    between atoms: _481  and  _482
REMARK  197  A    between atoms: _481  and  _484
REMARK  198  A    between atoms: _484  and  _485
REMARK  199  A    between atoms: _488  and  _490
REMARK  200  A    between atoms: _490  and  _491
REMARK  201  A    between atoms: _490  and  _493
REMARK  202  A    between atoms: _493  and  _494
REMARK  203  A    between atoms: _498  and  _499
REMARK  204  A    between atoms: _504  and  _506
REMARK  205  A    between atoms: _506  and  _507
REMARK  206  A    between atoms: _506  and  _509
REMARK  207  A    between atoms: _509  and  _510
REMARK  208  A    between atoms: _515  and  _517
REMARK  209  A    between atoms: _517  and  _518
REMARK  210  A    between atoms: _517  and  _520
REMARK  211  A    between atoms: _520  and  _521
REMARK  212  A    between atoms: _521  and  _522
REMARK  213  A    between atoms: _522  and  _523
REMARK  214  A    between atoms: _523  and  _524
REMARK  215  A    between atoms: _528  and  _530
REMARK  216  A    between atoms: _530  and  _531
REMARK  217  A    between atoms: _530  and  _533
REMARK  218  A    between atoms: _533  and  _534
REMARK  219  A    between atoms: _534  and  _535
REMARK  220  A    between atoms: _538  and  _540
REMARK  221  A    between atoms: _540  and  _541
REMARK  222  A    between atoms: _540  and  _543
REMARK  223  A    between atoms: _543  and  _544
REMARK  224  A    between atoms: _547  and  _549
REMARK  225  A    between atoms: _549  and  _550
REMARK  226  A    between atoms: _549  and  _552
REMARK  227  A    between atoms: _552  and  _553
REMARK  228  A    between atoms: _553  and  _554
REMARK  229  A    between atoms: _554  and  _555
REMARK  230  A    between atoms: _564  and  _566
REMARK  231  A    between atoms: _566  and  _567
REMARK  232  A    between atoms: _566  and  _569
REMARK  233  A    between atoms: _569  and  _570
REMARK  234  A    between atoms: _572  and  _574
REMARK  235  A    between atoms: _574  and  _575
REMARK  236  A    between atoms: _574  and  _577
REMARK  237  A    between atoms: _577  and  _578
REMARK  238  A    between atoms: _584  and  _586
REMARK  239  A    between atoms: _586  and  _587
REMARK  240  A    between atoms: _590  and  _592
REMARK  241  A    between atoms: _592  and  _593
REMARK  242  A    between atoms: _592  and  _595
REMARK  243  A    between atoms: _595  and  _596
REMARK  244  A    between atoms: _596  and  _597
REMARK  245  A    between atoms: _600  and  _602
REMARK  246  A    between atoms: _602  and  _603
REMARK  247  A    between atoms: _602  and  _605
REMARK  248  A    between atoms: _605  and  _606
REMARK                            x       y       z     vdW  Elec       q    Type
REMARK                         _______ _______ _______ _____ _____    ______ ____
ROOT
ATOM      1  O   HOH     1       2.499  27.047 -17.014  0.00  0.00    +0.000 OA
ENDROOT
TORSDOF 0
REMARK  Name = ../refined-set-2016/4pzv/4pzv_pocket.pdb
REMARK  248 active torsions:
REMARK  status: ('A' for Active; 'I' for Inactive)
REMARK    1  A    between atoms: _1  and  _3
REMARK    2  A    between atoms: _3  and  _4
REMARK    3  A    between atoms: _3  and  _6
REMARK    4  A    between atoms: _6  and  _7
REMARK    5  A    between atoms: _10  and  _12
REMARK    6  A    between atoms: _12  and  _13
REMARK    7  A    between atoms: _12  and  _15
REMARK    8  A    between atoms: _15  and  _16
REMARK    9  A    between atoms: _19  and  _21
REMARK   10  A    between atoms: _21  and  _22
REMARK   11  A    between atoms: _24  and  _26
REMARK   12  A    between atoms: _26  and  _27
REMARK   13  A    between atoms: _26  and  _29
REMARK   14  A    between atoms: _29  and  _30
REMARK   15  A    between atoms: _33  and  _35
REMARK   16  A    between atoms: _35  and  _36
REMARK   17  A    between atoms: _38  and  _40
REMARK   18  A    between atoms: _40  and  _41
REMARK   19  A    between atoms: _40  and  _43
REMARK   20  A    between atoms: _43  and  _44
REMARK   21  A    between atoms: _47  and  _49
REMARK   22  A    between atoms: _49  and  _50
REMARK   23  A    between atoms: _49  and  _52
REMARK   24  A    between atoms: _52  and  _53
REMARK   25  A    between atoms: _58  and  _60
REMARK   26  A    between atoms: _60  and  _61
REMARK   27  A    between atoms: _60  and  _63
REMARK   28  A    between atoms: _63  and  _64
REMARK   29  A    between atoms: _69  and  _70
REMARK   30  A    between atoms: _72  and  _74
REMARK   31  A    between atoms: _74  and  _75
REMARK   32  A    between atoms: _74  and  _77
REMARK   33  A    between atoms: _77  and  _78
REMARK   34  A    between atoms: _80  and  _82
REMARK   35  A    between atoms: _82  and  _83
REMARK   36  A    between atoms: _82  and  _85
REMARK   37  A    between atoms: _85  and  _86
REMARK   38  A    between atoms: _88  and  _90
REMARK   39  A    between atoms: _90  and  _91
REMARK   40  A    between atoms: _90  and  _93
REMARK   41  A    between atoms: _93  and  _94
REMARK   42  A    between atoms: _94  and  _95
REMARK   43  A    between atoms: _95  and  _96
REMARK   44  A    between atoms: _96  and  _97
REMARK   45  A    between atoms: _101  and  _103
REMARK   46  A    between atoms: _103  and  _104
REMARK   47  A    between atoms: _107  and  _109
REMARK   48  A    between atoms: _109  and  _110
REMARK   49  A    between atoms: _109  and  _112
REMARK   50  A    between atoms: _115  and  _117
REMARK   51  A    between atoms: _117  and  _118
REMARK   52  A    between atoms: _117  and  _120
REMARK   53  A    between atoms: _120  and  _121
REMARK   54  A    between atoms: _124  and  _126
REMARK   55  A    between atoms: _126  and  _127
REMARK   56  A    between atoms: _126  and  _129
REMARK   57  A    between atoms: _129  and  _130
REMARK   58  A    between atoms: _130  and  _131
REMARK   59  A    between atoms: _131  and  _132
REMARK   60  A    between atoms: _132  and  _133
REMARK   61  A    between atoms: _137  and  _139
REMARK   62  A    between atoms: _139  and  _140
REMARK   63  A    between atoms: _139  and  _142
REMARK   64  A    between atoms: _142  and  _143
REMARK   65  A    between atoms: _153  and  _155
REMARK   66  A    between atoms: _155  and  _156
REMARK   67  A    between atoms: _155  and  _158
REMARK   68  A    between atoms: _158  and  _159
REMARK   69  A    between atoms: _162  and  _164
REMARK   70  A    between atoms: _164  and  _165
REMARK   71  A    between atoms: _164  and  _167
REMARK   72  A    between atoms: _167  and  _168
REMARK   73  A    between atoms: _168  and  _169
REMARK   74  A    between atoms: _169  and  _170
REMARK   75  A    between atoms: _179  and  _181
REMARK   76  A    between atoms: _181  and  _182
REMARK   77  A    between atoms: _181  and  _184
REMARK   78  A    between atoms: _184  and  _185
REMARK   79  A    between atoms: _191  and  _193
REMARK   80  A    between atoms: _193  and  _194
REMARK   81  A    between atoms: _193  and  _196
REMARK   82  A    between atoms: _196  and  _197
REMARK   83  A    between atoms: _200  and  _202
REMARK   84  A    between atoms: _202  and  _203
REMARK   85  A    between atoms: _202  and  _205
REMARK   86  A    between atoms: _205  and  _206
REMARK   87  A    between atoms: _211  and  _213
REMARK   88  A    between atoms: _213  and  _214
REMARK   89  A    between atoms: _213  and  _216
REMARK   90  A    between atoms: _216  and  _217
REMARK   91  A    between atoms: _221  and  _222
REMARK   92  A    between atoms: _227  and  _229
REMARK   93  A    between atoms: _229  and  _230
REMARK   94  A    between atoms: _229  and  _232
REMARK   95  A    between atoms: _232  and  _233
REMARK   96  A    between atoms: _236  and  _238
REMARK   97  A    between atoms: _238  and  _239
REMARK   98  A    between atoms: _238  and  _241
REMARK   99  A    between atoms: _241  and  _242
REMARK  100  A    between atoms: _245  and  _247
REMARK  101  A    between atoms: _247  and  _248
REMARK  102  A    between atoms: _247  and  _250
REMARK  103  A    between atoms: _250  and  _251
REMARK  104  A    between atoms: _254  and  _256
REMARK  105  A    between atoms: _256  and  _257
REMARK  106  A    between atoms: _256  and  _259
REMARK  107  A    between atoms: _259  and  _260
REMARK  108  A    between atoms: _260  and  _261
REMARK  109  A    between atoms: _261  and  _262
REMARK  110  A    between atoms: _262  and  _263
REMARK  111  A    between atoms: _267  and  _269
REMARK  112  A    between atoms: _269  and  _270
REMARK  113  A    between atoms: _269  and  _272
REMARK  114  A    between atoms: _272  and  _273
REMARK  115  A    between atoms: _273  and  _274
REMARK  116  A    between atoms: _277  and  _279
REMARK  117  A    between atoms: _279  and  _280
REMARK  118  A    between atoms: _279  and  _282
REMARK  119  A    between atoms: _282  and  _283
REMARK  120  A    between atoms: _283  and  _284
REMARK  121  A    between atoms: _284  and  _285
REMARK  122  A    between atoms: _294  and  _296
REMARK  123  A    between atoms: _296  and  _297
REMARK  124  A    between atoms: _296  and  _299
REMARK  125  A    between atoms: _299  and  _300
REMARK  126  A    between atoms: _303  and  _305
REMARK  127  A    between atoms: _305  and  _306
REMARK  128  A    between atoms: _310  and  _311
REMARK  129  A    between atoms: _316  and  _318
REMARK  130  A    between atoms: _318  and  _319
REMARK  131  A    between atoms: _322  and  _324
REMARK  132  A    between atoms: _324  and  _325
REMARK  133  A    between atoms: _324  and  _327
REMARK  134  A    between atoms: _327  and  _328
REMARK  135  A    between atoms: _338  and  _340
REMARK  136  A    between atoms: _340  and  _341
REMARK  137  A    between atoms: _340  and  _343
REMARK  138  A    between atoms: _343  and  _344
REMARK  139  A    between atoms: _347  and  _348
REMARK  140  A    between atoms: _353  and  _355
REMARK  141  A    between atoms: _355  and  _356
REMARK  142  A    between atoms: _355  and  _358
REMARK  143  A    between atoms: _358  and  _359
REMARK  144  A    between atoms: _359  and  _360
REMARK  145  A    between atoms: _360  and  _361
REMARK  146  A    between atoms: _370  and  _372
REMARK  147  A    between atoms: _372  and  _373
REMARK  148  A    between atoms: _372  and  _375
REMARK  149  A    between atoms: _375  and  _376
REMARK  150  A    between atoms: _379  and  _381
REMARK  151  A    between atoms: _381  and  _382
REMARK  152  A    between atoms: _381  and  _384
REMARK  153  A    between atoms: _384  and  _385
REMARK  154  A    between atoms: _388  and  _390
REMARK  155  A    between atoms: _390  and  _391
REMARK  156  A    between atoms: _390  and  _393
REMARK  157  A    between atoms: _393  and  _394
REMARK  158  A    between atoms: _397  and  _399
REMARK  159  A    between atoms: _399  and  _400
REMARK  160  A    between atoms: _399  and  _402
REMARK  161  A    between atoms: _402  and  _403
REMARK  162  A    between atoms: _406  and  _408
REMARK  163  A    between atoms: _408  and  _409
REMARK  164  A    between atoms: _408  and  _411
REMARK  165  A    between atoms: _411  and  _412
REMARK  166  A    between atoms: _415  and  _417
REMARK  167  A    between atoms: _417  and  _418
REMARK  168  A    between atoms: _417  and  _420
REMARK  169  A    between atoms: _420  and  _421
REMARK  170  A    between atoms: _424  and  _426
REMARK  171  A    between atoms: _426  and  _427
REMARK  172  A    between atoms: _430  and  _432
REMARK  173  A    between atoms: _432  and  _433
REMARK  174  A    between atoms: _432  and  _435
REMARK  175  A    between atoms: _435  and  _436
REMARK  176  A    between atoms: _439  and  _441
REMARK  177  A    between atoms: _441  and  _442
REMARK  178  A    between atoms: _441  and  _444
REMARK  179  A    between atoms: _444  and  _445
REMARK  180  A    between atoms: _448  and  _450
REMARK  181  A    between atoms: _450  and  _451
REMARK  182  A    between atoms: _450  and  _453
REMARK  183  A    between atoms: _453  and  _454
REMARK  184  A    between atoms: _457  and  _459
REMARK  185  A    between atoms: _459  and  _460
REMARK  186  A    between atoms: _459  and  _462
REMARK  187  A    between atoms: _462  and  _463
REMARK  188  A    between atoms: _463  and  _464
REMARK  189  A    between atoms: _464  and  _465
REMARK  190  A    between atoms: _465  and  _466
REMARK  191  A    between atoms: _470  and  _472
REMARK  192  A    between atoms: _472  and  _473
REMARK  193  A    between atoms: _472  and  _475
REMARK  194  A    between atoms: _475  and  _476
REMARK  195  A    between atoms: _479  and  _481
REMARK  196  A    between atoms: _481  and  _482
REMARK  197  A    between atoms: _481  and  _484
REMARK  198  A    between atoms: _484  and  _485
REMARK  199  A    between atoms: _488  and  _490
REMARK  200  A    between atoms: _490  and  _491
REMARK  201  A    between atoms: _490  and  _493
REMARK  202  A    between atoms: _493  and  _494
REMARK  203  A    between atoms: _498  and  _499
REMARK  204  A    between atoms: _504  and  _506
REMARK  205  A    between atoms: _506  and  _507
REMARK  206  A    between atoms: _506  and  _509
REMARK  207  A    between atoms: _509  and  _510
REMARK  208  A    between atoms: _515  and  _517
REMARK  209  A    between atoms: _517  and  _518
REMARK  210  A    between atoms: _517  and  _520
REMARK  211  A    between atoms: _520  and  _521
REMARK  212  A    between atoms: _521  and  _522
REMARK  213  A    between atoms: _522  and  _523
REMARK  214  A    between atoms: _523  and  _524
REMARK  215  A    between atoms: _528  and  _530
REMARK  216  A    between atoms: _530  and  _531
REMARK  217  A    between atoms: _530  and  _533
REMARK  218  A    between atoms: _533  and  _534
REMARK  219  A    between atoms: _534  and  _535
REMARK  220  A    between atoms: _538  and  _540
REMARK  221  A    between atoms: _540  and  _541
REMARK  222  A    between atoms: _540  and  _543
REMARK  223  A    between atoms: _543  and  _544
REMARK  224  A    between atoms: _547  and  _549
REMARK  225  A    between atoms: _549  and  _550
REMARK  226  A    between atoms: _549  and  _552
REMARK  227  A    between atoms: _552  and  _553
REMARK  228  A    between atoms: _553  and  _554
REMARK  229  A    between atoms: _554  and  _555
REMARK  230  A    between atoms: _564  and  _566
REMARK  231  A    between atoms: _566  and  _567
REMARK  232  A    between atoms: _566  and  _569
REMARK  233  A    between atoms: _569  and  _570
REMARK  234  A    between atoms: _572  and  _574
REMARK  235  A    between atoms: _574  and  _575
REMARK  236  A    between atoms: _574  and  _577
REMARK  237  A    between atoms: _577  and  _578
REMARK  238  A    between atoms: _584  and  _586
REMARK  239  A    between atoms: _586  and  _587
REMARK  240  A    between atoms: _590  and  _592
REMARK  241  A    between atoms: _592  and  _593
REMARK  242  A    between atoms: _592  and  _595
REMARK  243  A    between atoms: _595  and  _596
REMARK  244  A    between atoms: _596  and  _597
REMARK  245  A    between atoms: _600  and  _602
REMARK  246  A    between atoms: _602  and  _603
REMARK  247  A    between atoms: _602  and  _605
REMARK  248  A    between atoms: _605  and  _606
REMARK                            x       y       z     vdW  Elec       q    Type
REMARK                         _______ _______ _______ _____ _____    ______ ____
ROOT
ATOM      1  O   HOH     1      -2.908  29.352  -8.748  0.00  0.00    +0.000 OA
ENDROOT
TORSDOF 0
REMARK  Name = ../refined-set-2016/4pzv/4pzv_pocket.pdb
REMARK  248 active torsions:
REMARK  status: ('A' for Active; 'I' for Inactive)
REMARK    1  A    between atoms: _1  and  _3
REMARK    2  A    between atoms: _3  and  _4
REMARK    3  A    between atoms: _3  and  _6
REMARK    4  A    between atoms: _6  and  _7
REMARK    5  A    between atoms: _10  and  _12
REMARK    6  A    between atoms: _12  and  _13
REMARK    7  A    between atoms: _12  and  _15
REMARK    8  A    between atoms: _15  and  _16
REMARK    9  A    between atoms: _19  and  _21
REMARK   10  A    between atoms: _21  and  _22
REMARK   11  A    between atoms: _24  and  _26
REMARK   12  A    between atoms: _26  and  _27
REMARK   13  A    between atoms: _26  and  _29
REMARK   14  A    between atoms: _29  and  _30
REMARK   15  A    between atoms: _33  and  _35
REMARK   16  A    between atoms: _35  and  _36
REMARK   17  A    between atoms: _38  and  _40
REMARK   18  A    between atoms: _40  and  _41
REMARK   19  A    between atoms: _40  and  _43
REMARK   20  A    between atoms: _43  and  _44
REMARK   21  A    between atoms: _47  and  _49
REMARK   22  A    between atoms: _49  and  _50
REMARK   23  A    between atoms: _49  and  _52
REMARK   24  A    between atoms: _52  and  _53
REMARK   25  A    between atoms: _58  and  _60
REMARK   26  A    between atoms: _60  and  _61
REMARK   27  A    between atoms: _60  and  _63
REMARK   28  A    between atoms: _63  and  _64
REMARK   29  A    between atoms: _69  and  _70
REMARK   30  A    between atoms: _72  and  _74
REMARK   31  A    between atoms: _74  and  _75
REMARK   32  A    between atoms: _74  and  _77
REMARK   33  A    between atoms: _77  and  _78
REMARK   34  A    between atoms: _80  and  _82
REMARK   35  A    between atoms: _82  and  _83
REMARK   36  A    between atoms: _82  and  _85
REMARK   37  A    between atoms: _85  and  _86
REMARK   38  A    between atoms: _88  and  _90
REMARK   39  A    between atoms: _90  and  _91
REMARK   40  A    between atoms: _90  and  _93
REMARK   41  A    between atoms: _93  and  _94
REMARK   42  A    between atoms: _94  and  _95
REMARK   43  A    between atoms: _95  and  _96
REMARK   44  A    between atoms: _96  and  _97
REMARK   45  A    between atoms: _101  and  _103
REMARK   46  A    between atoms: _103  and  _104
REMARK   47  A    between atoms: _107  and  _109
REMARK   48  A    between atoms: _109  and  _110
REMARK   49  A    between atoms: _109  and  _112
REMARK   50  A    between atoms: _115  and  _117
REMARK   51  A    between atoms: _117  and  _118
REMARK   52  A    between atoms: _117  and  _120
REMARK   53  A    between atoms: _120  and  _121
REMARK   54  A    between atoms: _124  and  _126
REMARK   55  A    between atoms: _126  and  _127
REMARK   56  A    between atoms: _126  and  _129
REMARK   57  A    between atoms: _129  and  _130
REMARK   58  A    between atoms: _130  and  _131
REMARK   59  A    between atoms: _131  and  _132
REMARK   60  A    between atoms: _132  and  _133
REMARK   61  A    between atoms: _137  and  _139
REMARK   62  A    between atoms: _139  and  _140
REMARK   63  A    between atoms: _139  and  _142
REMARK   64  A    between atoms: _142  and  _143
REMARK   65  A    between atoms: _153  and  _155
REMARK   66  A    between atoms: _155  and  _156
REMARK   67  A    between atoms: _155  and  _158
REMARK   68  A    between atoms: _158  and  _159
REMARK   69  A    between atoms: _162  and  _164
REMARK   70  A    between atoms: _164  and  _165
REMARK   71  A    between atoms: _164  and  _167
REMARK   72  A    between atoms: _167  and  _168
REMARK   73  A    between atoms: _168  and  _169
REMARK   74  A    between atoms: _169  and  _170
REMARK   75  A    between atoms: _179  and  _181
REMARK   76  A    between atoms: _181  and  _182
REMARK   77  A    between atoms: _181  and  _184
REMARK   78  A    between atoms: _184  and  _185
REMARK   79  A    between atoms: _191  and  _193
REMARK   80  A    between atoms: _193  and  _194
REMARK   81  A    between atoms: _193  and  _196
REMARK   82  A    between atoms: _196  and  _197
REMARK   83  A    between atoms: _200  and  _202
REMARK   84  A    between atoms: _202  and  _203
REMARK   85  A    between atoms: _202  and  _205
REMARK   86  A    between atoms: _205  and  _206
REMARK   87  A    between atoms: _211  and  _213
REMARK   88  A    between atoms: _213  and  _214
REMARK   89  A    between atoms: _213  and  _216
REMARK   90  A    between atoms: _216  and  _217
REMARK   91  A    between atoms: _221  and  _222
REMARK   92  A    between atoms: _227  and  _229
REMARK   93  A    between atoms: _229  and  _230
REMARK   94  A    between atoms: _229  and  _232
REMARK   95  A    between atoms: _232  and  _233
REMARK   96  A    between atoms: _236  and  _238
REMARK   97  A    between atoms: _238  and  _239
REMARK   98  A    between atoms: _238  and  _241
REMARK   99  A    between atoms: _241  and  _242
REMARK  100  A    between atoms: _245  and  _247
REMARK  101  A    between atoms: _247  and  _248
REMARK  102  A    between atoms: _247  and  _250
REMARK  103  A    between atoms: _250  and  _251
REMARK  104  A    between atoms: _254  and  _256
REMARK  105  A    between atoms: _256  and  _257
REMARK  106  A    between atoms: _256  and  _259
REMARK  107  A    between atoms: _259  and  _260
REMARK  108  A    between atoms: _260  and  _261
REMARK  109  A    between atoms: _261  and  _262
REMARK  110  A    between atoms: _262  and  _263
REMARK  111  A    between atoms: _267  and  _269
REMARK  112  A    between atoms: _269  and  _270
REMARK  113  A    between atoms: _269  and  _272
REMARK  114  A    between atoms: _272  and  _273
REMARK  115  A    between atoms: _273  and  _274
REMARK  116  A    between atoms: _277  and  _279
REMARK  117  A    between atoms: _279  and  _280
REMARK  118  A    between atoms: _279  and  _282
REMARK  119  A    between atoms: _282  and  _283
REMARK  120  A    between atoms: _283  and  _284
REMARK  121  A    between atoms: _284  and  _285
REMARK  122  A    between atoms: _294  and  _296
REMARK  123  A    between atoms: _296  and  _297
REMARK  124  A    between atoms: _296  and  _299
REMARK  125  A    between atoms: _299  and  _300
REMARK  126  A    between atoms: _303  and  _305
REMARK  127  A    between atoms: _305  and  _306
REMARK  128  A    between atoms: _310  and  _311
REMARK  129  A    between atoms: _316  and  _318
REMARK  130  A    between atoms: _318  and  _319
REMARK  131  A    between atoms: _322  and  _324
REMARK  132  A    between atoms: _324  and  _325
REMARK  133  A    between atoms: _324  and  _327
REMARK  134  A    between atoms: _327  and  _328
REMARK  135  A    between atoms: _338  and  _340
REMARK  136  A    between atoms: _340  and  _341
REMARK  137  A    between atoms: _340  and  _343
REMARK  138  A    between atoms: _343  and  _344
REMARK  139  A    between atoms: _347  and  _348
REMARK  140  A    between atoms: _353  and  _355
REMARK  141  A    between atoms: _355  and  _356
REMARK  142  A    between atoms: _355  and  _358
REMARK  143  A    between atoms: _358  and  _359
REMARK  144  A    between atoms: _359  and  _360
REMARK  145  A    between atoms: _360  and  _361
REMARK  146  A    between atoms: _370  and  _372
REMARK  147  A    between atoms: _372  and  _373
REMARK  148  A    between atoms: _372  and  _375
REMARK  149  A    between atoms: _375  and  _376
REMARK  150  A    between atoms: _379  and  _381
REMARK  151  A    between atoms: _381  and  _382
REMARK  152  A    between atoms: _381  and  _384
REMARK  153  A    between atoms: _384  and  _385
REMARK  154  A    between atoms: _388  and  _390
REMARK  155  A    between atoms: _390  and  _391
REMARK  156  A    between atoms: _390  and  _393
REMARK  157  A    between atoms: _393  and  _394
REMARK  158  A    between atoms: _397  and  _399
REMARK  159  A    between atoms: _399  and  _400
REMARK  160  A    between atoms: _399  and  _402
REMARK  161  A    between atoms: _402  and  _403
REMARK  162  A    between atoms: _406  and  _408
REMARK  163  A    between atoms: _408  and  _409
REMARK  164  A    between atoms: _408  and  _411
REMARK  165  A    between atoms: _411  and  _412
REMARK  166  A    between atoms: _415  and  _417
REMARK  167  A    between atoms: _417  and  _418
REMARK  168  A    between atoms: _417  and  _420
REMARK  169  A    between atoms: _420  and  _421
REMARK  170  A    between atoms: _424  and  _426
REMARK  171  A    between atoms: _426  and  _427
REMARK  172  A    between atoms: _430  and  _432
REMARK  173  A    between atoms: _432  and  _433
REMARK  174  A    between atoms: _432  and  _435
REMARK  175  A    between atoms: _435  and  _436
REMARK  176  A    between atoms: _439  and  _441
REMARK  177  A    between atoms: _441  and  _442
REMARK  178  A    between atoms: _441  and  _444
REMARK  179  A    between atoms: _444  and  _445
REMARK  180  A    between atoms: _448  and  _450
REMARK  181  A    between atoms: _450  and  _451
REMARK  182  A    between atoms: _450  and  _453
REMARK  183  A    between atoms: _453  and  _454
REMARK  184  A    between atoms: _457  and  _459
REMARK  185  A    between atoms: _459  and  _460
REMARK  186  A    between atoms: _459  and  _462
REMARK  187  A    between atoms: _462  and  _463
REMARK  188  A    between atoms: _463  and  _464
REMARK  189  A    between atoms: _464  and  _465
REMARK  190  A    between atoms: _465  and  _466
REMARK  191  A    between atoms: _470  and  _472
REMARK  192  A    between atoms: _472  and  _473
REMARK  193  A    between atoms: _472  and  _475
REMARK  194  A    between atoms: _475  and  _476
REMARK  195  A    between atoms: _479  and  _481
REMARK  196  A    between atoms: _481  and  _482
REMARK  197  A    between atoms: _481  and  _484
REMARK  198  A    between atoms: _484  and  _485
REMARK  199  A    between atoms: _488  and  _490
REMARK  200  A    between atoms: _490  and  _491
REMARK  201  A    between atoms: _490  and  _493
REMARK  202  A    between atoms: _493  and  _494
REMARK  203  A    between atoms: _498  and  _499
REMARK  204  A    between atoms: _504  and  _506
REMARK  205  A    between atoms: _506  and  _507
REMARK  206  A    between atoms: _506  and  _509
REMARK  207  A    between atoms: _509  and  _510
REMARK  208  A    between atoms: _515  and  _517
REMARK  209  A    between atoms: _517  and  _518
REMARK  210  A    between atoms: _517  and  _520
REMARK  211  A    between atoms: _520  and  _521
REMARK  212  A    between atoms: _521  and  _522
REMARK  213  A    between atoms: _522  and  _523
REMARK  214  A    between atoms: _523  and  _524
REMARK  215  A    between atoms: _528  and  _530
REMARK  216  A    between atoms: _530  and  _531
REMARK  217  A    between atoms: _530  and  _533
REMARK  218  A    between atoms: _533  and  _534
REMARK  219  A    between atoms: _534  and  _535
REMARK  220  A    between atoms: _538  and  _540
REMARK  221  A    between atoms: _540  and  _541
REMARK  222  A    between atoms: _540  and  _543
REMARK  223  A    between atoms: _543  and  _544
REMARK  224  A    between atoms: _547  and  _549
REMARK  225  A    between atoms: _549  and  _550
REMARK  226  A    between atoms: _549  and  _552
REMARK  227  A    between atoms: _552  and  _553
REMARK  228  A    between atoms: _553  and  _554
REMARK  229  A    between atoms: _554  and  _555
REMARK  230  A    between atoms: _564  and  _566
REMARK  231  A    between atoms: _566  and  _567
REMARK  232  A    between atoms: _566  and  _569
REMARK  233  A    between atoms: _569  and  _570
REMARK  234  A    between atoms: _572  and  _574
REMARK  235  A    between atoms: _574  and  _575
REMARK  236  A    between atoms: _574  and  _577
REMARK  237  A    between atoms: _577  and  _578
REMARK  238  A    between atoms: _584  and  _586
REMARK  239  A    between atoms: _586  and  _587
REMARK  240  A    between atoms: _590  and  _592
REMARK  241  A    between atoms: _592  and  _593
REMARK  242  A    between atoms: _592  and  _595
REMARK  243  A    between atoms: _595  and  _596
REMARK  244  A    between atoms: _596  and  _597
REMARK  245  A    between atoms: _600  and  _602
REMARK  246  A    between atoms: _602  and  _603
REMARK  247  A    between atoms: _602  and  _605
REMARK  248  A    between atoms: _605  and  _606
REMARK                            x       y       z     vdW  Elec       q    Type
REMARK                         _______ _______ _______ _____ _____    ______ ____
ROOT
ATOM      1  O   HOH     1      -0.013  28.686 -20.510  0.00  0.00    +0.000 OA
ENDROOT
TORSDOF 0
REMARK  Name = ../refined-set-2016/4pzv/4pzv_pocket.pdb
REMARK  248 active torsions:
REMARK  status: ('A' for Active; 'I' for Inactive)
REMARK    1  A    between atoms: _1  and  _3
REMARK    2  A    between atoms: _3  and  _4
REMARK    3  A    between atoms: _3  and  _6
REMARK    4  A    between atoms: _6  and  _7
REMARK    5  A    between atoms: _10  and  _12
REMARK    6  A    between atoms: _12  and  _13
REMARK    7  A    between atoms: _12  and  _15
REMARK    8  A    between atoms: _15  and  _16
REMARK    9  A    between atoms: _19  and  _21
REMARK   10  A    between atoms: _21  and  _22
REMARK   11  A    between atoms: _24  and  _26
REMARK   12  A    between atoms: _26  and  _27
REMARK   13  A    between atoms: _26  and  _29
REMARK   14  A    between atoms: _29  and  _30
REMARK   15  A    between atoms: _33  and  _35
REMARK   16  A    between atoms: _35  and  _36
REMARK   17  A    between atoms: _38  and  _40
REMARK   18  A    between atoms: _40  and  _41
REMARK   19  A    between atoms: _40  and  _43
REMARK   20  A    between atoms: _43  and  _44
REMARK   21  A    between atoms: _47  and  _49
REMARK   22  A    between atoms: _49  and  _50
REMARK   23  A    between atoms: _49  and  _52
REMARK   24  A    between atoms: _52  and  _53
REMARK   25  A    between atoms: _58  and  _60
REMARK   26  A    between atoms: _60  and  _61
REMARK   27  A    between atoms: _60  and  _63
REMARK   28  A    between atoms: _63  and  _64
REMARK   29  A    between atoms: _69  and  _70
REMARK   30  A    between atoms: _72  and  _74
REMARK   31  A    between atoms: _74  and  _75
REMARK   32  A    between atoms: _74  and  _77
REMARK   33  A    between atoms: _77  and  _78
REMARK   34  A    between atoms: _80  and  _82
REMARK   35  A    between atoms: _82  and  _83
REMARK   36  A    between atoms: _82  and  _85
REMARK   37  A    between atoms: _85  and  _86
REMARK   38  A    between atoms: _88  and  _90
REMARK   39  A    between atoms: _90  and  _91
REMARK   40  A    between atoms: _90  and  _93
REMARK   41  A    between atoms: _93  and  _94
REMARK   42  A    between atoms: _94  and  _95
REMARK   43  A    between atoms: _95  and  _96
REMARK   44  A    between atoms: _96  and  _97
REMARK   45  A    between atoms: _101  and  _103
REMARK   46  A    between atoms: _103  and  _104
REMARK   47  A    between atoms: _107  and  _109
REMARK   48  A    between atoms: _109  and  _110
REMARK   49  A    between atoms: _109  and  _112
REMARK   50  A    between atoms: _115  and  _117
REMARK   51  A    between atoms: _117  and  _118
REMARK   52  A    between atoms: _117  and  _120
REMARK   53  A    between atoms: _120  and  _121
REMARK   54  A    between atoms: _124  and  _126
REMARK   55  A    between atoms: _126  and  _127
REMARK   56  A    between atoms: _126  and  _129
REMARK   57  A    between atoms: _129  and  _130
REMARK   58  A    between atoms: _130  and  _131
REMARK   59  A    between atoms: _131  and  _132
REMARK   60  A    between atoms: _132  and  _133
REMARK   61  A    between atoms: _137  and  _139
REMARK   62  A    between atoms: _139  and  _140
REMARK   63  A    between atoms: _139  and  _142
REMARK   64  A    between atoms: _142  and  _143
REMARK   65  A    between atoms: _153  and  _155
REMARK   66  A    between atoms: _155  and  _156
REMARK   67  A    between atoms: _155  and  _158
REMARK   68  A    between atoms: _158  and  _159
REMARK   69  A    between atoms: _162  and  _164
REMARK   70  A    between atoms: _164  and  _165
REMARK   71  A    between atoms: _164  and  _167
REMARK   72  A    between atoms: _167  and  _168
REMARK   73  A    between atoms: _168  and  _169
REMARK   74  A    between atoms: _169  and  _170
REMARK   75  A    between atoms: _179  and  _181
REMARK   76  A    between atoms: _181  and  _182
REMARK   77  A    between atoms: _181  and  _184
REMARK   78  A    between atoms: _184  and  _185
REMARK   79  A    between atoms: _191  and  _193
REMARK   80  A    between atoms: _193  and  _194
REMARK   81  A    between atoms: _193  and  _196
REMARK   82  A    between atoms: _196  and  _197
REMARK   83  A    between atoms: _200  and  _202
REMARK   84  A    between atoms: _202  and  _203
REMARK   85  A    between atoms: _202  and  _205
REMARK   86  A    between atoms: _205  and  _206
REMARK   87  A    between atoms: _211  and  _213
REMARK   88  A    between atoms: _213  and  _214
REMARK   89  A    between atoms: _213  and  _216
REMARK   90  A    between atoms: _216  and  _217
REMARK   91  A    between atoms: _221  and  _222
REMARK   92  A    between atoms: _227  and  _229
REMARK   93  A    between atoms: _229  and  _230
REMARK   94  A    between atoms: _229  and  _232
REMARK   95  A    between atoms: _232  and  _233
REMARK   96  A    between atoms: _236  and  _238
REMARK   97  A    between atoms: _238  and  _239
REMARK   98  A    between atoms: _238  and  _241
REMARK   99  A    between atoms: _241  and  _242
REMARK  100  A    between atoms: _245  and  _247
REMARK  101  A    between atoms: _247  and  _248
REMARK  102  A    between atoms: _247  and  _250
REMARK  103  A    between atoms: _250  and  _251
REMARK  104  A    between atoms: _254  and  _256
REMARK  105  A    between atoms: _256  and  _257
REMARK  106  A    between atoms: _256  and  _259
REMARK  107  A    between atoms: _259  and  _260
REMARK  108  A    between atoms: _260  and  _261
REMARK  109  A    between atoms: _261  and  _262
REMARK  110  A    between atoms: _262  and  _263
REMARK  111  A    between atoms: _267  and  _269
REMARK  112  A    between atoms: _269  and  _270
REMARK  113  A    between atoms: _269  and  _272
REMARK  114  A    between atoms: _272  and  _273
REMARK  115  A    between atoms: _273  and  _274
REMARK  116  A    between atoms: _277  and  _279
REMARK  117  A    between atoms: _279  and  _280
REMARK  118  A    between atoms: _279  and  _282
REMARK  119  A    between atoms: _282  and  _283
REMARK  120  A    between atoms: _283  and  _284
REMARK  121  A    between atoms: _284  and  _285
REMARK  122  A    between atoms: _294  and  _296
REMARK  123  A    between atoms: _296  and  _297
REMARK  124  A    between atoms: _296  and  _299
REMARK  125  A    between atoms: _299  and  _300
REMARK  126  A    between atoms: _303  and  _305
REMARK  127  A    between atoms: _305  and  _306
REMARK  128  A    between atoms: _310  and  _311
REMARK  129  A    between atoms: _316  and  _318
REMARK  130  A    between atoms: _318  and  _319
REMARK  131  A    between atoms: _322  and  _324
REMARK  132  A    between atoms: _324  and  _325
REMARK  133  A    between atoms: _324  and  _327
REMARK  134  A    between atoms: _327  and  _328
REMARK  135  A    between atoms: _338  and  _340
REMARK  136  A    between atoms: _340  and  _341
REMARK  137  A    between atoms: _340  and  _343
REMARK  138  A    between atoms: _343  and  _344
REMARK  139  A    between atoms: _347  and  _348
REMARK  140  A    between atoms: _353  and  _355
REMARK  141  A    between atoms: _355  and  _356
REMARK  142  A    between atoms: _355  and  _358
REMARK  143  A    between atoms: _358  and  _359
REMARK  144  A    between atoms: _359  and  _360
REMARK  145  A    between atoms: _360  and  _361
REMARK  146  A    between atoms: _370  and  _372
REMARK  147  A    between atoms: _372  and  _373
REMARK  148  A    between atoms: _372  and  _375
REMARK  149  A    between atoms: _375  and  _376
REMARK  150  A    between atoms: _379  and  _381
REMARK  151  A    between atoms: _381  and  _382
REMARK  152  A    between atoms: _381  and  _384
REMARK  153  A    between atoms: _384  and  _385
REMARK  154  A    between atoms: _388  and  _390
REMARK  155  A    between atoms: _390  and  _391
REMARK  156  A    between atoms: _390  and  _393
REMARK  157  A    between atoms: _393  and  _394
REMARK  158  A    between atoms: _397  and  _399
REMARK  159  A    between atoms: _399  and  _400
REMARK  160  A    between atoms: _399  and  _402
REMARK  161  A    between atoms: _402  and  _403
REMARK  162  A    between atoms: _406  and  _408
REMARK  163  A    between atoms: _408  and  _409
REMARK  164  A    between atoms: _408  and  _411
REMARK  165  A    between atoms: _411  and  _412
REMARK  166  A    between atoms: _415  and  _417
REMARK  167  A    between atoms: _417  and  _418
REMARK  168  A    between atoms: _417  and  _420
REMARK  169  A    between atoms: _420  and  _421
REMARK  170  A    between atoms: _424  and  _426
REMARK  171  A    between atoms: _426  and  _427
REMARK  172  A    between atoms: _430  and  _432
REMARK  173  A    between atoms: _432  and  _433
REMARK  174  A    between atoms: _432  and  _435
REMARK  175  A    between atoms: _435  and  _436
REMARK  176  A    between atoms: _439  and  _441
REMARK  177  A    between atoms: _441  and  _442
REMARK  178  A    between atoms: _441  and  _444
REMARK  179  A    between atoms: _444  and  _445
REMARK  180  A    between atoms: _448  and  _450
REMARK  181  A    between atoms: _450  and  _451
REMARK  182  A    between atoms: _450  and  _453
REMARK  183  A    between atoms: _453  and  _454
REMARK  184  A    between atoms: _457  and  _459
REMARK  185  A    between atoms: _459  and  _460
REMARK  186  A    between atoms: _459  and  _462
REMARK  187  A    between atoms: _462  and  _463
REMARK  188  A    between atoms: _463  and  _464
REMARK  189  A    between atoms: _464  and  _465
REMARK  190  A    between atoms: _465  and  _466
REMARK  191  A    between atoms: _470  and  _472
REMARK  192  A    between atoms: _472  and  _473
REMARK  193  A    between atoms: _472  and  _475
REMARK  194  A    between atoms: _475  and  _476
REMARK  195  A    between atoms: _479  and  _481
REMARK  196  A    between atoms: _481  and  _482
REMARK  197  A    between atoms: _481  and  _484
REMARK  198  A    between atoms: _484  and  _485
REMARK  199  A    between atoms: _488  and  _490
REMARK  200  A    between atoms: _490  and  _491
REMARK  201  A    between atoms: _490  and  _493
REMARK  202  A    between atoms: _493  and  _494
REMARK  203  A    between atoms: _498  and  _499
REMARK  204  A    between atoms: _504  and  _506
REMARK  205  A    between atoms: _506  and  _507
REMARK  206  A    between atoms: _506  and  _509
REMARK  207  A    between atoms: _509  and  _510
REMARK  208  A    between atoms: _515  and  _517
REMARK  209  A    between atoms: _517  and  _518
REMARK  210  A    between atoms: _517  and  _520
REMARK  211  A    between atoms: _520  and  _521
REMARK  212  A    between atoms: _521  and  _522
REMARK  213  A    between atoms: _522  and  _523
REMARK  214  A    between atoms: _523  and  _524
REMARK  215  A    between atoms: _528  and  _530
REMARK  216  A    between atoms: _530  and  _531
REMARK  217  A    between atoms: _530  and  _533
REMARK  218  A    between atoms: _533  and  _534
REMARK  219  A    between atoms: _534  and  _535
REMARK  220  A    between atoms: _538  and  _540
REMARK  221  A    between atoms: _540  and  _541
REMARK  222  A    between atoms: _540  and  _543
REMARK  223  A    between atoms: _543  and  _544
REMARK  224  A    between atoms: _547  and  _549
REMARK  225  A    between atoms: _549  and  _550
REMARK  226  A    between atoms: _549  and  _552
REMARK  227  A    between atoms: _552  and  _553
REMARK  228  A    between atoms: _553  and  _554
REMARK  229  A    between atoms: _554  and  _555
REMARK  230  A    between atoms: _564  and  _566
REMARK  231  A    between atoms: _566  and  _567
REMARK  232  A    between atoms: _566  and  _569
REMARK  233  A    between atoms: _569  and  _570
REMARK  234  A    between atoms: _572  and  _574
REMARK  235  A    between atoms: _574  and  _575
REMARK  236  A    between atoms: _574  and  _577
REMARK  237  A    between atoms: _577  and  _578
REMARK  238  A    between atoms: _584  and  _586
REMARK  239  A    between atoms: _586  and  _587
REMARK  240  A    between atoms: _590  and  _592
REMARK  241  A    between atoms: _592  and  _593
REMARK  242  A    between atoms: _592  and  _595
REMARK  243  A    between atoms: _595  and  _596
REMARK  244  A    between atoms: _596  and  _597
REMARK  245  A    between atoms: _600  and  _602
REMARK  246  A    between atoms: _602  and  _603
REMARK  247  A    between atoms: _602  and  _605
REMARK  248  A    between atoms: _605  and  _606
REMARK                            x       y       z     vdW  Elec       q    Type
REMARK                         _______ _______ _______ _____ _____    ______ ____
ROOT
ATOM      1  O   HOH     1       5.402  33.880  -7.895  0.00  0.00    +0.000 OA
ENDROOT
TORSDOF 0
REMARK  Name = ../refined-set-2016/4pzv/4pzv_pocket.pdb
REMARK  248 active torsions:
REMARK  status: ('A' for Active; 'I' for Inactive)
REMARK    1  A    between atoms: _1  and  _3
REMARK    2  A    between atoms: _3  and  _4
REMARK    3  A    between atoms: _3  and  _6
REMARK    4  A    between atoms: _6  and  _7
REMARK    5  A    between atoms: _10  and  _12
REMARK    6  A    between atoms: _12  and  _13
REMARK    7  A    between atoms: _12  and  _15
REMARK    8  A    between atoms: _15  and  _16
REMARK    9  A    between atoms: _19  and  _21
REMARK   10  A    between atoms: _21  and  _22
REMARK   11  A    between atoms: _24  and  _26
REMARK   12  A    between atoms: _26  and  _27
REMARK   13  A    between atoms: _26  and  _29
REMARK   14  A    between atoms: _29  and  _30
REMARK   15  A    between atoms: _33  and  _35
REMARK   16  A    between atoms: _35  and  _36
REMARK   17  A    between atoms: _38  and  _40
REMARK   18  A    between atoms: _40  and  _41
REMARK   19  A    between atoms: _40  and  _43
REMARK   20  A    between atoms: _43  and  _44
REMARK   21  A    between atoms: _47  and  _49
REMARK   22  A    between atoms: _49  and  _50
REMARK   23  A    between atoms: _49  and  _52
REMARK   24  A    between atoms: _52  and  _53
REMARK   25  A    between atoms: _58  and  _60
REMARK   26  A    between atoms: _60  and  _61
REMARK   27  A    between atoms: _60  and  _63
REMARK   28  A    between atoms: _63  and  _64
REMARK   29  A    between atoms: _69  and  _70
REMARK   30  A    between atoms: _72  and  _74
REMARK   31  A    between atoms: _74  and  _75
REMARK   32  A    between atoms: _74  and  _77
REMARK   33  A    between atoms: _77  and  _78
REMARK   34  A    between atoms: _80  and  _82
REMARK   35  A    between atoms: _82  and  _83
REMARK   36  A    between atoms: _82  and  _85
REMARK   37  A    between atoms: _85  and  _86
REMARK   38  A    between atoms: _88  and  _90
REMARK   39  A    between atoms: _90  and  _91
REMARK   40  A    between atoms: _90  and  _93
REMARK   41  A    between atoms: _93  and  _94
REMARK   42  A    between atoms: _94  and  _95
REMARK   43  A    between atoms: _95  and  _96
REMARK   44  A    between atoms: _96  and  _97
REMARK   45  A    between atoms: _101  and  _103
REMARK   46  A    between atoms: _103  and  _104
REMARK   47  A    between atoms: _107  and  _109
REMARK   48  A    between atoms: _109  and  _110
REMARK   49  A    between atoms: _109  and  _112
REMARK   50  A    between atoms: _115  and  _117
REMARK   51  A    between atoms: _117  and  _118
REMARK   52  A    between atoms: _117  and  _120
REMARK   53  A    between atoms: _120  and  _121
REMARK   54  A    between atoms: _124  and  _126
REMARK   55  A    between atoms: _126  and  _127
REMARK   56  A    between atoms: _126  and  _129
REMARK   57  A    between atoms: _129  and  _130
REMARK   58  A    between atoms: _130  and  _131
REMARK   59  A    between atoms: _131  and  _132
REMARK   60  A    between atoms: _132  and  _133
REMARK   61  A    between atoms: _137  and  _139
REMARK   62  A    between atoms: _139  and  _140
REMARK   63  A    between atoms: _139  and  _142
REMARK   64  A    between atoms: _142  and  _143
REMARK   65  A    between atoms: _153  and  _155
REMARK   66  A    between atoms: _155  and  _156
REMARK   67  A    between atoms: _155  and  _158
REMARK   68  A    between atoms: _158  and  _159
REMARK   69  A    between atoms: _162  and  _164
REMARK   70  A    between atoms: _164  and  _165
REMARK   71  A    between atoms: _164  and  _167
REMARK   72  A    between atoms: _167  and  _168
REMARK   73  A    between atoms: _168  and  _169
REMARK   74  A    between atoms: _169  and  _170
REMARK   75  A    between atoms: _179  and  _181
REMARK   76  A    between atoms: _181  and  _182
REMARK   77  A    between atoms: _181  and  _184
REMARK   78  A    between atoms: _184  and  _185
REMARK   79  A    between atoms: _191  and  _193
REMARK   80  A    between atoms: _193  and  _194
REMARK   81  A    between atoms: _193  and  _196
REMARK   82  A    between atoms: _196  and  _197
REMARK   83  A    between atoms: _200  and  _202
REMARK   84  A    between atoms: _202  and  _203
REMARK   85  A    between atoms: _202  and  _205
REMARK   86  A    between atoms: _205  and  _206
REMARK   87  A    between atoms: _211  and  _213
REMARK   88  A    between atoms: _213  and  _214
REMARK   89  A    between atoms: _213  and  _216
REMARK   90  A    between atoms: _216  and  _217
REMARK   91  A    between atoms: _221  and  _222
REMARK   92  A    between atoms: _227  and  _229
REMARK   93  A    between atoms: _229  and  _230
REMARK   94  A    between atoms: _229  and  _232
REMARK   95  A    between atoms: _232  and  _233
REMARK   96  A    between atoms: _236  and  _238
REMARK   97  A    between atoms: _238  and  _239
REMARK   98  A    between atoms: _238  and  _241
REMARK   99  A    between atoms: _241  and  _242
REMARK  100  A    between atoms: _245  and  _247
REMARK  101  A    between atoms: _247  and  _248
REMARK  102  A    between atoms: _247  and  _250
REMARK  103  A    between atoms: _250  and  _251
REMARK  104  A    between atoms: _254  and  _256
REMARK  105  A    between atoms: _256  and  _257
REMARK  106  A    between atoms: _256  and  _259
REMARK  107  A    between atoms: _259  and  _260
REMARK  108  A    between atoms: _260  and  _261
REMARK  109  A    between atoms: _261  and  _262
REMARK  110  A    between atoms: _262  and  _263
REMARK  111  A    between atoms: _267  and  _269
REMARK  112  A    between atoms: _269  and  _270
REMARK  113  A    between atoms: _269  and  _272
REMARK  114  A    between atoms: _272  and  _273
REMARK  115  A    between atoms: _273  and  _274
REMARK  116  A    between atoms: _277  and  _279
REMARK  117  A    between atoms: _279  and  _280
REMARK  118  A    between atoms: _279  and  _282
REMARK  119  A    between atoms: _282  and  _283
REMARK  120  A    between atoms: _283  and  _284
REMARK  121  A    between atoms: _284  and  _285
REMARK  122  A    between atoms: _294  and  _296
REMARK  123  A    between atoms: _296  and  _297
REMARK  124  A    between atoms: _296  and  _299
REMARK  125  A    between atoms: _299  and  _300
REMARK  126  A    between atoms: _303  and  _305
REMARK  127  A    between atoms: _305  and  _306
REMARK  128  A    between atoms: _310  and  _311
REMARK  129  A    between atoms: _316  and  _318
REMARK  130  A    between atoms: _318  and  _319
REMARK  131  A    between atoms: _322  and  _324
REMARK  132  A    between atoms: _324  and  _325
REMARK  133  A    between atoms: _324  and  _327
REMARK  134  A    between atoms: _327  and  _328
REMARK  135  A    between atoms: _338  and  _340
REMARK  136  A    between atoms: _340  and  _341
REMARK  137  A    between atoms: _340  and  _343
REMARK  138  A    between atoms: _343  and  _344
REMARK  139  A    between atoms: _347  and  _348
REMARK  140  A    between atoms: _353  and  _355
REMARK  141  A    between atoms: _355  and  _356
REMARK  142  A    between atoms: _355  and  _358
REMARK  143  A    between atoms: _358  and  _359
REMARK  144  A    between atoms: _359  and  _360
REMARK  145  A    between atoms: _360  and  _361
REMARK  146  A    between atoms: _370  and  _372
REMARK  147  A    between atoms: _372  and  _373
REMARK  148  A    between atoms: _372  and  _375
REMARK  149  A    between atoms: _375  and  _376
REMARK  150  A    between atoms: _379  and  _381
REMARK  151  A    between atoms: _381  and  _382
REMARK  152  A    between atoms: _381  and  _384
REMARK  153  A    between atoms: _384  and  _385
REMARK  154  A    between atoms: _388  and  _390
REMARK  155  A    between atoms: _390  and  _391
REMARK  156  A    between atoms: _390  and  _393
REMARK  157  A    between atoms: _393  and  _394
REMARK  158  A    between atoms: _397  and  _399
REMARK  159  A    between atoms: _399  and  _400
REMARK  160  A    between atoms: _399  and  _402
REMARK  161  A    between atoms: _402  and  _403
REMARK  162  A    between atoms: _406  and  _408
REMARK  163  A    between atoms: _408  and  _409
REMARK  164  A    between atoms: _408  and  _411
REMARK  165  A    between atoms: _411  and  _412
REMARK  166  A    between atoms: _415  and  _417
REMARK  167  A    between atoms: _417  and  _418
REMARK  168  A    between atoms: _417  and  _420
REMARK  169  A    between atoms: _420  and  _421
REMARK  170  A    between atoms: _424  and  _426
REMARK  171  A    between atoms: _426  and  _427
REMARK  172  A    between atoms: _430  and  _432
REMARK  173  A    between atoms: _432  and  _433
REMARK  174  A    between atoms: _432  and  _435
REMARK  175  A    between atoms: _435  and  _436
REMARK  176  A    between atoms: _439  and  _441
REMARK  177  A    between atoms: _441  and  _442
REMARK  178  A    between atoms: _441  and  _444
REMARK  179  A    between atoms: _444  and  _445
REMARK  180  A    between atoms: _448  and  _450
REMARK  181  A    between atoms: _450  and  _451
REMARK  182  A    between atoms: _450  and  _453
REMARK  183  A    between atoms: _453  and  _454
REMARK  184  A    between atoms: _457  and  _459
REMARK  185  A    between atoms: _459  and  _460
REMARK  186  A    between atoms: _459  and  _462
REMARK  187  A    between atoms: _462  and  _463
REMARK  188  A    between atoms: _463  and  _464
REMARK  189  A    between atoms: _464  and  _465
REMARK  190  A    between atoms: _465  and  _466
REMARK  191  A    between atoms: _470  and  _472
REMARK  192  A    between atoms: _472  and  _473
REMARK  193  A    between atoms: _472  and  _475
REMARK  194  A    between atoms: _475  and  _476
REMARK  195  A    between atoms: _479  and  _481
REMARK  196  A    between atoms: _481  and  _482
REMARK  197  A    between atoms: _481  and  _484
REMARK  198  A    between atoms: _484  and  _485
REMARK  199  A    between atoms: _488  and  _490
REMARK  200  A    between atoms: _490  and  _491
REMARK  201  A    between atoms: _490  and  _493
REMARK  202  A    between atoms: _493  and  _494
REMARK  203  A    between atoms: _498  and  _499
REMARK  204  A    between atoms: _504  and  _506
REMARK  205  A    between atoms: _506  and  _507
REMARK  206  A    between atoms: _506  and  _509
REMARK  207  A    between atoms: _509  and  _510
REMARK  208  A    between atoms: _515  and  _517
REMARK  209  A    between atoms: _517  and  _518
REMARK  210  A    between atoms: _517  and  _520
REMARK  211  A    between atoms: _520  and  _521
REMARK  212  A    between atoms: _521  and  _522
REMARK  213  A    between atoms: _522  and  _523
REMARK  214  A    between atoms: _523  and  _524
REMARK  215  A    between atoms: _528  and  _530
REMARK  216  A    between atoms: _530  and  _531
REMARK  217  A    between atoms: _530  and  _533
REMARK  218  A    between atoms: _533  and  _534
REMARK  219  A    between atoms: _534  and  _535
REMARK  220  A    between atoms: _538  and  _540
REMARK  221  A    between atoms: _540  and  _541
REMARK  222  A    between atoms: _540  and  _543
REMARK  223  A    between atoms: _543  and  _544
REMARK  224  A    between atoms: _547  and  _549
REMARK  225  A    between atoms: _549  and  _550
REMARK  226  A    between atoms: _549  and  _552
REMARK  227  A    between atoms: _552  and  _553
REMARK  228  A    between atoms: _553  and  _554
REMARK  229  A    between atoms: _554  and  _555
REMARK  230  A    between atoms: _564  and  _566
REMARK  231  A    between atoms: _566  and  _567
REMARK  232  A    between atoms: _566  and  _569
REMARK  233  A    between atoms: _569  and  _570
REMARK  234  A    between atoms: _572  and  _574
REMARK  235  A    between atoms: _574  and  _575
REMARK  236  A    between atoms: _574  and  _577
REMARK  237  A    between atoms: _577  and  _578
REMARK  238  A    between atoms: _584  and  _586
REMARK  239  A    between atoms: _586  and  _587
REMARK  240  A    between atoms: _590  and  _592
REMARK  241  A    between atoms: _592  and  _593
REMARK  242  A    between atoms: _592  and  _595
REMARK  243  A    between atoms: _595  and  _596
REMARK  244  A    between atoms: _596  and  _597
REMARK  245  A    between atoms: _600  and  _602
REMARK  246  A    between atoms: _602  and  _603
REMARK  247  A    between atoms: _602  and  _605
REMARK  248  A    between atoms: _605  and  _606
REMARK                            x       y       z     vdW  Elec       q    Type
REMARK                         _______ _______ _______ _____ _____    ______ ____
ROOT
ATOM      1  O   HOH     1      16.870  26.718 -12.112  0.00  0.00    +0.000 OA
ENDROOT
TORSDOF 0
REMARK  Name = ../refined-set-2016/4pzv/4pzv_pocket.pdb
REMARK  248 active torsions:
REMARK  status: ('A' for Active; 'I' for Inactive)
REMARK    1  A    between atoms: _1  and  _3
REMARK    2  A    between atoms: _3  and  _4
REMARK    3  A    between atoms: _3  and  _6
REMARK    4  A    between atoms: _6  and  _7
REMARK    5  A    between atoms: _10  and  _12
REMARK    6  A    between atoms: _12  and  _13
REMARK    7  A    between atoms: _12  and  _15
REMARK    8  A    between atoms: _15  and  _16
REMARK    9  A    between atoms: _19  and  _21
REMARK   10  A    between atoms: _21  and  _22
REMARK   11  A    between atoms: _24  and  _26
REMARK   12  A    between atoms: _26  and  _27
REMARK   13  A    between atoms: _26  and  _29
REMARK   14  A    between atoms: _29  and  _30
REMARK   15  A    between atoms: _33  and  _35
REMARK   16  A    between atoms: _35  and  _36
REMARK   17  A    between atoms: _38  and  _40
REMARK   18  A    between atoms: _40  and  _41
REMARK   19  A    between atoms: _40  and  _43
REMARK   20  A    between atoms: _43  and  _44
REMARK   21  A    between atoms: _47  and  _49
REMARK   22  A    between atoms: _49  and  _50
REMARK   23  A    between atoms: _49  and  _52
REMARK   24  A    between atoms: _52  and  _53
REMARK   25  A    between atoms: _58  and  _60
REMARK   26  A    between atoms: _60  and  _61
REMARK   27  A    between atoms: _60  and  _63
REMARK   28  A    between atoms: _63  and  _64
REMARK   29  A    between atoms: _69  and  _70
REMARK   30  A    between atoms: _72  and  _74
REMARK   31  A    between atoms: _74  and  _75
REMARK   32  A    between atoms: _74  and  _77
REMARK   33  A    between atoms: _77  and  _78
REMARK   34  A    between atoms: _80  and  _82
REMARK   35  A    between atoms: _82  and  _83
REMARK   36  A    between atoms: _82  and  _85
REMARK   37  A    between atoms: _85  and  _86
REMARK   38  A    between atoms: _88  and  _90
REMARK   39  A    between atoms: _90  and  _91
REMARK   40  A    between atoms: _90  and  _93
REMARK   41  A    between atoms: _93  and  _94
REMARK   42  A    between atoms: _94  and  _95
REMARK   43  A    between atoms: _95  and  _96
REMARK   44  A    between atoms: _96  and  _97
REMARK   45  A    between atoms: _101  and  _103
REMARK   46  A    between atoms: _103  and  _104
REMARK   47  A    between atoms: _107  and  _109
REMARK   48  A    between atoms: _109  and  _110
REMARK   49  A    between atoms: _109  and  _112
REMARK   50  A    between atoms: _115  and  _117
REMARK   51  A    between atoms: _117  and  _118
REMARK   52  A    between atoms: _117  and  _120
REMARK   53  A    between atoms: _120  and  _121
REMARK   54  A    between atoms: _124  and  _126
REMARK   55  A    between atoms: _126  and  _127
REMARK   56  A    between atoms: _126  and  _129
REMARK   57  A    between atoms: _129  and  _130
REMARK   58  A    between atoms: _130  and  _131
REMARK   59  A    between atoms: _131  and  _132
REMARK   60  A    between atoms: _132  and  _133
REMARK   61  A    between atoms: _137  and  _139
REMARK   62  A    between atoms: _139  and  _140
REMARK   63  A    between atoms: _139  and  _142
REMARK   64  A    between atoms: _142  and  _143
REMARK   65  A    between atoms: _153  and  _155
REMARK   66  A    between atoms: _155  and  _156
REMARK   67  A    between atoms: _155  and  _158
REMARK   68  A    between atoms: _158  and  _159
REMARK   69  A    between atoms: _162  and  _164
REMARK   70  A    between atoms: _164  and  _165
REMARK   71  A    between atoms: _164  and  _167
REMARK   72  A    between atoms: _167  and  _168
REMARK   73  A    between atoms: _168  and  _169
REMARK   74  A    between atoms: _169  and  _170
REMARK   75  A    between atoms: _179  and  _181
REMARK   76  A    between atoms: _181  and  _182
REMARK   77  A    between atoms: _181  and  _184
REMARK   78  A    between atoms: _184  and  _185
REMARK   79  A    between atoms: _191  and  _193
REMARK   80  A    between atoms: _193  and  _194
REMARK   81  A    between atoms: _193  and  _196
REMARK   82  A    between atoms: _196  and  _197
REMARK   83  A    between atoms: _200  and  _202
REMARK   84  A    between atoms: _202  and  _203
REMARK   85  A    between atoms: _202  and  _205
REMARK   86  A    between atoms: _205  and  _206
REMARK   87  A    between atoms: _211  and  _213
REMARK   88  A    between atoms: _213  and  _214
REMARK   89  A    between atoms: _213  and  _216
REMARK   90  A    between atoms: _216  and  _217
REMARK   91  A    between atoms: _221  and  _222
REMARK   92  A    between atoms: _227  and  _229
REMARK   93  A    between atoms: _229  and  _230
REMARK   94  A    between atoms: _229  and  _232
REMARK   95  A    between atoms: _232  and  _233
REMARK   96  A    between atoms: _236  and  _238
REMARK   97  A    between atoms: _238  and  _239
REMARK   98  A    between atoms: _238  and  _241
REMARK   99  A    between atoms: _241  and  _242
REMARK  100  A    between atoms: _245  and  _247
REMARK  101  A    between atoms: _247  and  _248
REMARK  102  A    between atoms: _247  and  _250
REMARK  103  A    between atoms: _250  and  _251
REMARK  104  A    between atoms: _254  and  _256
REMARK  105  A    between atoms: _256  and  _257
REMARK  106  A    between atoms: _256  and  _259
REMARK  107  A    between atoms: _259  and  _260
REMARK  108  A    between atoms: _260  and  _261
REMARK  109  A    between atoms: _261  and  _262
REMARK  110  A    between atoms: _262  and  _263
REMARK  111  A    between atoms: _267  and  _269
REMARK  112  A    between atoms: _269  and  _270
REMARK  113  A    between atoms: _269  and  _272
REMARK  114  A    between atoms: _272  and  _273
REMARK  115  A    between atoms: _273  and  _274
REMARK  116  A    between atoms: _277  and  _279
REMARK  117  A    between atoms: _279  and  _280
REMARK  118  A    between atoms: _279  and  _282
REMARK  119  A    between atoms: _282  and  _283
REMARK  120  A    between atoms: _283  and  _284
REMARK  121  A    between atoms: _284  and  _285
REMARK  122  A    between atoms: _294  and  _296
REMARK  123  A    between atoms: _296  and  _297
REMARK  124  A    between atoms: _296  and  _299
REMARK  125  A    between atoms: _299  and  _300
REMARK  126  A    between atoms: _303  and  _305
REMARK  127  A    between atoms: _305  and  _306
REMARK  128  A    between atoms: _310  and  _311
REMARK  129  A    between atoms: _316  and  _318
REMARK  130  A    between atoms: _318  and  _319
REMARK  131  A    between atoms: _322  and  _324
REMARK  132  A    between atoms: _324  and  _325
REMARK  133  A    between atoms: _324  and  _327
REMARK  134  A    between atoms: _327  and  _328
REMARK  135  A    between atoms: _338  and  _340
REMARK  136  A    between atoms: _340  and  _341
REMARK  137  A    between atoms: _340  and  _343
REMARK  138  A    between atoms: _343  and  _344
REMARK  139  A    between atoms: _347  and  _348
REMARK  140  A    between atoms: _353  and  _355
REMARK  141  A    between atoms: _355  and  _356
REMARK  142  A    between atoms: _355  and  _358
REMARK  143  A    between atoms: _358  and  _359
REMARK  144  A    between atoms: _359  and  _360
REMARK  145  A    between atoms: _360  and  _361
REMARK  146  A    between atoms: _370  and  _372
REMARK  147  A    between atoms: _372  and  _373
REMARK  148  A    between atoms: _372  and  _375
REMARK  149  A    between atoms: _375  and  _376
REMARK  150  A    between atoms: _379  and  _381
REMARK  151  A    between atoms: _381  and  _382
REMARK  152  A    between atoms: _381  and  _384
REMARK  153  A    between atoms: _384  and  _385
REMARK  154  A    between atoms: _388  and  _390
REMARK  155  A    between atoms: _390  and  _391
REMARK  156  A    between atoms: _390  and  _393
REMARK  157  A    between atoms: _393  and  _394
REMARK  158  A    between atoms: _397  and  _399
REMARK  159  A    between atoms: _399  and  _400
REMARK  160  A    between atoms: _399  and  _402
REMARK  161  A    between atoms: _402  and  _403
REMARK  162  A    between atoms: _406  and  _408
REMARK  163  A    between atoms: _408  and  _409
REMARK  164  A    between atoms: _408  and  _411
REMARK  165  A    between atoms: _411  and  _412
REMARK  166  A    between atoms: _415  and  _417
REMARK  167  A    between atoms: _417  and  _418
REMARK  168  A    between atoms: _417  and  _420
REMARK  169  A    between atoms: _420  and  _421
REMARK  170  A    between atoms: _424  and  _426
REMARK  171  A    between atoms: _426  and  _427
REMARK  172  A    between atoms: _430  and  _432
REMARK  173  A    between atoms: _432  and  _433
REMARK  174  A    between atoms: _432  and  _435
REMARK  175  A    between atoms: _435  and  _436
REMARK  176  A    between atoms: _439  and  _441
REMARK  177  A    between atoms: _441  and  _442
REMARK  178  A    between atoms: _441  and  _444
REMARK  179  A    between atoms: _444  and  _445
REMARK  180  A    between atoms: _448  and  _450
REMARK  181  A    between atoms: _450  and  _451
REMARK  182  A    between atoms: _450  and  _453
REMARK  183  A    between atoms: _453  and  _454
REMARK  184  A    between atoms: _457  and  _459
REMARK  185  A    between atoms: _459  and  _460
REMARK  186  A    between atoms: _459  and  _462
REMARK  187  A    between atoms: _462  and  _463
REMARK  188  A    between atoms: _463  and  _464
REMARK  189  A    between atoms: _464  and  _465
REMARK  190  A    between atoms: _465  and  _466
REMARK  191  A    between atoms: _470  and  _472
REMARK  192  A    between atoms: _472  and  _473
REMARK  193  A    between atoms: _472  and  _475
REMARK  194  A    between atoms: _475  and  _476
REMARK  195  A    between atoms: _479  and  _481
REMARK  196  A    between atoms: _481  and  _482
REMARK  197  A    between atoms: _481  and  _484
REMARK  198  A    between atoms: _484  and  _485
REMARK  199  A    between atoms: _488  and  _490
REMARK  200  A    between atoms: _490  and  _491
REMARK  201  A    between atoms: _490  and  _493
REMARK  202  A    between atoms: _493  and  _494
REMARK  203  A    between atoms: _498  and  _499
REMARK  204  A    between atoms: _504  and  _506
REMARK  205  A    between atoms: _506  and  _507
REMARK  206  A    between atoms: _506  and  _509
REMARK  207  A    between atoms: _509  and  _510
REMARK  208  A    between atoms: _515  and  _517
REMARK  209  A    between atoms: _517  and  _518
REMARK  210  A    between atoms: _517  and  _520
REMARK  211  A    between atoms: _520  and  _521
REMARK  212  A    between atoms: _521  and  _522
REMARK  213  A    between atoms: _522  and  _523
REMARK  214  A    between atoms: _523  and  _524
REMARK  215  A    between atoms: _528  and  _530
REMARK  216  A    between atoms: _530  and  _531
REMARK  217  A    between atoms: _530  and  _533
REMARK  218  A    between atoms: _533  and  _534
REMARK  219  A    between atoms: _534  and  _535
REMARK  220  A    between atoms: _538  and  _540
REMARK  221  A    between atoms: _540  and  _541
REMARK  222  A    between atoms: _540  and  _543
REMARK  223  A    between atoms: _543  and  _544
REMARK  224  A    between atoms: _547  and  _549
REMARK  225  A    between atoms: _549  and  _550
REMARK  226  A    between atoms: _549  and  _552
REMARK  227  A    between atoms: _552  and  _553
REMARK  228  A    between atoms: _553  and  _554
REMARK  229  A    between atoms: _554  and  _555
REMARK  230  A    between atoms: _564  and  _566
REMARK  231  A    between atoms: _566  and  _567
REMARK  232  A    between atoms: _566  and  _569
REMARK  233  A    between atoms: _569  and  _570
REMARK  234  A    between atoms: _572  and  _574
REMARK  235  A    between atoms: _574  and  _575
REMARK  236  A    between atoms: _574  and  _577
REMARK  237  A    between atoms: _577  and  _578
REMARK  238  A    between atoms: _584  and  _586
REMARK  239  A    between atoms: _586  and  _587
REMARK  240  A    between atoms: _590  and  _592
REMARK  241  A    between atoms: _592  and  _593
REMARK  242  A    between atoms: _592  and  _595
REMARK  243  A    between atoms: _595  and  _596
REMARK  244  A    between atoms: _596  and  _597
REMARK  245  A    between atoms: _600  and  _602
REMARK  246  A    between atoms: _602  and  _603
REMARK  247  A    between atoms: _602  and  _605
REMARK  248  A    between atoms: _605  and  _606
REMARK                            x       y       z     vdW  Elec       q    Type
REMARK                         _______ _______ _______ _____ _____    ______ ____
ROOT
ATOM      1  O   HOH     1      -1.395  32.277  -7.862  0.00  0.00    +0.000 OA
ENDROOT
TORSDOF 0
