REMARK  Name = ../refined-set-2016/2cbz/2cbz_pocket.pdb
REMARK  122 active torsions:
REMARK  status: ('A' for Active; 'I' for Inactive)
REMARK    1  A    between atoms: _1  and  _3
REMARK    2  A    between atoms: _3  and  _4
REMARK    3  A    between atoms: _3  and  _6
REMARK    4  A    between atoms: _6  and  _7
REMARK    5  A    between atoms: _10  and  _12
REMARK    6  A    between atoms: _12  and  _13
REMARK    7  A    between atoms: _12  and  _15
REMARK    8  A    between atoms: _15  and  _16
REMARK    9  A    between atoms: _26  and  _28
REMARK   10  A    between atoms: _28  and  _29
REMARK   11  A    between atoms: _33  and  _34
REMARK   12  A    between atoms: _39  and  _41
REMARK   13  A    between atoms: _41  and  _42
REMARK   14  A    between atoms: _41  and  _44
REMARK   15  A    between atoms: _44  and  _45
REMARK   16  A    between atoms: _48  and  _50
REMARK   17  A    between atoms: _50  and  _51
REMARK   18  A    between atoms: _50  and  _53
REMARK   19  A    between atoms: _53  and  _54
REMARK   20  A    between atoms: _57  and  _59
REMARK   21  A    between atoms: _59  and  _60
REMARK   22  A    between atoms: _59  and  _62
REMARK   23  A    between atoms: _65  and  _67
REMARK   24  A    between atoms: _67  and  _68
REMARK   25  A    between atoms: _67  and  _70
REMARK   26  A    between atoms: _73  and  _75
REMARK   27  A    between atoms: _75  and  _76
REMARK   28  A    between atoms: _78  and  _80
REMARK   29  A    between atoms: _80  and  _81
REMARK   30  A    between atoms: _80  and  _83
REMARK   31  A    between atoms: _83  and  _84
REMARK   32  A    between atoms: _84  and  _85
REMARK   33  A    between atoms: _90  and  _92
REMARK   34  A    between atoms: _92  and  _93
REMARK   35  A    between atoms: _92  and  _95
REMARK   36  A    between atoms: _98  and  _100
REMARK   37  A    between atoms: _100  and  _101
REMARK   38  A    between atoms: _103  and  _105
REMARK   39  A    between atoms: _105  and  _106
REMARK   40  A    between atoms: _105  and  _108
REMARK   41  A    between atoms: _110  and  _112
REMARK   42  A    between atoms: _112  and  _113
REMARK   43  A    between atoms: _115  and  _117
REMARK   44  A    between atoms: _117  and  _118
REMARK   45  A    between atoms: _117  and  _120
REMARK   46  A    between atoms: _120  and  _121
REMARK   47  A    between atoms: _121  and  _122
REMARK   48  A    between atoms: _122  and  _123
REMARK   49  A    between atoms: _123  and  _124
REMARK   50  A    between atoms: _128  and  _130
REMARK   51  A    between atoms: _130  and  _131
REMARK   52  A    between atoms: _130  and  _133
REMARK   53  A    between atoms: _133  and  _134
REMARK   54  A    between atoms: _136  and  _138
REMARK   55  A    between atoms: _138  and  _139
REMARK   56  A    between atoms: _138  and  _141
REMARK   57  A    between atoms: _141  and  _142
REMARK   58  A    between atoms: _144  and  _146
REMARK   59  A    between atoms: _146  and  _147
REMARK   60  A    between atoms: _146  and  _149
REMARK   61  A    between atoms: _149  and  _150
REMARK   62  A    between atoms: _153  and  _155
REMARK   63  A    between atoms: _155  and  _156
REMARK   64  A    between atoms: _155  and  _158
REMARK   65  A    between atoms: _158  and  _159
REMARK   66  A    between atoms: _162  and  _164
REMARK   67  A    between atoms: _164  and  _165
REMARK   68  A    between atoms: _164  and  _167
REMARK   69  A    between atoms: _167  and  _168
REMARK   70  A    between atoms: _170  and  _172
REMARK   71  A    between atoms: _172  and  _173
REMARK   72  A    between atoms: _176  and  _178
REMARK   73  A    between atoms: _178  and  _179
REMARK   74  A    between atoms: _178  and  _181
REMARK   75  A    between atoms: _181  and  _182
REMARK   76  A    between atoms: _182  and  _183
REMARK   77  A    between atoms: _186  and  _188
REMARK   78  A    between atoms: _188  and  _189
REMARK   79  A    between atoms: _188  and  _191
REMARK   80  A    between atoms: _191  and  _192
REMARK   81  A    between atoms: _192  and  _193
REMARK   82  A    between atoms: _195  and  _197
REMARK   83  A    between atoms: _197  and  _198
REMARK   84  A    between atoms: _197  and  _200
REMARK   85  A    between atoms: _200  and  _201
REMARK   86  A    between atoms: _206  and  _207
REMARK   87  A    between atoms: _209  and  _211
REMARK   88  A    between atoms: _211  and  _212
REMARK   89  A    between atoms: _211  and  _214
REMARK   90  A    between atoms: _214  and  _215
REMARK   91  A    between atoms: _215  and  _216
REMARK   92  A    between atoms: _216  and  _217
REMARK   93  A    between atoms: _216  and  _218
REMARK   94  A    between atoms: _217  and  MG_286
REMARK   95  A    between atoms: _221  and  _223
REMARK   96  A    between atoms: _223  and  _224
REMARK   97  A    between atoms: _223  and  _226
REMARK   98  A    between atoms: _226  and  _227
REMARK   99  A    between atoms: _230  and  _232
REMARK  100  A    between atoms: _232  and  _233
REMARK  101  A    between atoms: _232  and  _235
REMARK  102  A    between atoms: _235  and  _236
REMARK  103  A    between atoms: _239  and  _241
REMARK  104  A    between atoms: _241  and  _242
REMARK  105  A    between atoms: _241  and  _244
REMARK  106  A    between atoms: _247  and  _249
REMARK  107  A    between atoms: _249  and  _250
REMARK  108  A    between atoms: _249  and  _252
REMARK  109  A    between atoms: _252  and  _253
REMARK  110  A    between atoms: _256  and  _258
REMARK  111  A    between atoms: _258  and  _259
REMARK  112  A    between atoms: _258  and  _261
REMARK  113  A    between atoms: _261  and  _262
REMARK  114  A    between atoms: _267  and  _269
REMARK  115  A    between atoms: _269  and  _270
REMARK  116  A    between atoms: _269  and  _272
REMARK  117  A    between atoms: _272  and  _273
REMARK  118  A    between atoms: _273  and  _274
REMARK  119  A    between atoms: _276  and  _278
REMARK  120  A    between atoms: _278  and  _279
REMARK  121  A    between atoms: _281  and  _283
REMARK  122  A    between atoms: _283  and  _284
REMARK                            x       y       z     vdW  Elec       q    Type
REMARK                         _______ _______ _______ _____ _____    ______ ____
ROOT
ATOM      1  CA  TRP A   2     -12.227  50.281  -5.665  0.00  0.00    +0.153 C 
ENDROOT
BRANCH   1   4
ATOM      2  C   THR A   1     -12.243  52.741  -5.626  0.00  0.00    +0.241 C 
ATOM      3  O   THR A   1     -11.059  52.860  -5.289  0.00  0.00    -0.274 OA
ATOM      4  N   TRP A   2     -12.884  51.576  -5.724  0.00  0.00    -0.297 N 
ATOM      5  H   TRP A   2     -13.916  51.595  -5.850  0.00  0.00    +0.150 HD
BRANCH   2   6
ATOM      6  CA  THR A   1     -13.084  53.968  -5.966  0.00  0.00    +0.172 C 
BRANCH   6   7
ATOM      7  N   THR A   1     -12.662  55.161  -5.254  0.00  0.00    -0.236 NA
ATOM      8  H   THR A   1     -11.653  55.411  -5.227  0.00  0.00    +0.142 HD
ENDBRANCH   6   7
BRANCH   6   9
ATOM      9  CB  THR A   1     -13.096  54.204  -7.489  0.00  0.00    +0.135 C 
ATOM     10  CG2 THR A   1     -11.674  54.370  -8.041  0.00  0.00    +0.034 C 
BRANCH   9  11
ATOM     11  OG1 THR A   1     -13.749  53.109  -8.139  0.00  0.00    -0.383 OA
ATOM     12  HG1 THR A   1     -13.755  53.263  -9.117  0.00  0.00    +0.210 HD
ENDBRANCH   9  11
ENDBRANCH   6   9
ENDBRANCH   2   6
ENDBRANCH   1   4
BRANCH   1  13
ATOM     13  C   TRP A   2     -11.864  49.790  -7.073  0.00  0.00    +0.241 C 
ATOM     14  O   TRP A   2     -11.076  48.862  -7.216  0.00  0.00    -0.273 OA
ATOM     15  N   ALA A   3     -12.458  50.407  -8.094  0.00  0.00    -0.298 N 
ATOM     16  H   ALA A   3     -13.056  51.233  -7.891  0.00  0.00    +0.150 HD
BRANCH  15  17
ATOM     17  CA  ALA A   3     -12.311  49.981  -9.490  0.00  0.00    +0.137 C 
ATOM     18  CB  ALA A   3     -13.142  48.718  -9.756  0.00  0.00    +0.030 C 
BRANCH  17  19
ATOM     19  C   ALA A   3     -12.736  51.098 -10.429  0.00  0.00    +0.227 C 
ATOM     20  O   ALA A   3     -13.904  51.508 -10.436  0.00  0.00    -0.286 OA
ENDBRANCH  17  19
ENDBRANCH  15  17
ENDBRANCH   1  13
BRANCH   1  21
ATOM     21  CB  TRP A   2     -13.128  49.241  -4.998  0.00  0.00    +0.057 C 
BRANCH  21  22
ATOM     22  CG  TRP A   2     -13.352  49.443  -3.526  0.00  0.00    -0.002 A 
ATOM     23  CD2 TRP A   2     -12.381  49.301  -2.480  0.00  0.00    +0.013 A 
ATOM     24  CE2 TRP A   2     -13.041  49.564  -1.252  0.00  0.00    +0.056 A 
ATOM     25  CZ2 TRP A   2     -12.381  49.510  -0.020  0.00  0.00    +0.017 A 
ATOM     26  CH2 TRP A   2     -11.047  49.192  -0.030  0.00  0.00    +0.001 A 
ATOM     27  CZ3 TRP A   2     -10.363  48.933  -1.231  0.00  0.00    +0.000 A 
ATOM     28  NE1 TRP A   2     -14.354  49.841  -1.538  0.00  0.00    -0.352 N 
ATOM     29  HE1 TRP A   2     -15.091  50.068  -0.841  0.00  0.00    +0.166 HD
ATOM     30  CE3 TRP A   2     -11.018  48.979  -2.458  0.00  0.00    +0.001 A 
ATOM     31  CD1 TRP A   2     -14.534  49.768  -2.906  0.00  0.00    +0.068 A 
ENDBRANCH  21  22
ENDBRANCH   1  21
TORSDOF 10
REMARK  Name = ../refined-set-2016/2cbz/2cbz_pocket.pdb
REMARK  122 active torsions:
REMARK  status: ('A' for Active; 'I' for Inactive)
REMARK    1  A    between atoms: _1  and  _3
REMARK    2  A    between atoms: _3  and  _4
REMARK    3  A    between atoms: _3  and  _6
REMARK    4  A    between atoms: _6  and  _7
REMARK    5  A    between atoms: _10  and  _12
REMARK    6  A    between atoms: _12  and  _13
REMARK    7  A    between atoms: _12  and  _15
REMARK    8  A    between atoms: _15  and  _16
REMARK    9  A    between atoms: _26  and  _28
REMARK   10  A    between atoms: _28  and  _29
REMARK   11  A    between atoms: _33  and  _34
REMARK   12  A    between atoms: _39  and  _41
REMARK   13  A    between atoms: _41  and  _42
REMARK   14  A    between atoms: _41  and  _44
REMARK   15  A    between atoms: _44  and  _45
REMARK   16  A    between atoms: _48  and  _50
REMARK   17  A    between atoms: _50  and  _51
REMARK   18  A    between atoms: _50  and  _53
REMARK   19  A    between atoms: _53  and  _54
REMARK   20  A    between atoms: _57  and  _59
REMARK   21  A    between atoms: _59  and  _60
REMARK   22  A    between atoms: _59  and  _62
REMARK   23  A    between atoms: _65  and  _67
REMARK   24  A    between atoms: _67  and  _68
REMARK   25  A    between atoms: _67  and  _70
REMARK   26  A    between atoms: _73  and  _75
REMARK   27  A    between atoms: _75  and  _76
REMARK   28  A    between atoms: _78  and  _80
REMARK   29  A    between atoms: _80  and  _81
REMARK   30  A    between atoms: _80  and  _83
REMARK   31  A    between atoms: _83  and  _84
REMARK   32  A    between atoms: _84  and  _85
REMARK   33  A    between atoms: _90  and  _92
REMARK   34  A    between atoms: _92  and  _93
REMARK   35  A    between atoms: _92  and  _95
REMARK   36  A    between atoms: _98  and  _100
REMARK   37  A    between atoms: _100  and  _101
REMARK   38  A    between atoms: _103  and  _105
REMARK   39  A    between atoms: _105  and  _106
REMARK   40  A    between atoms: _105  and  _108
REMARK   41  A    between atoms: _110  and  _112
REMARK   42  A    between atoms: _112  and  _113
REMARK   43  A    between atoms: _115  and  _117
REMARK   44  A    between atoms: _117  and  _118
REMARK   45  A    between atoms: _117  and  _120
REMARK   46  A    between atoms: _120  and  _121
REMARK   47  A    between atoms: _121  and  _122
REMARK   48  A    between atoms: _122  and  _123
REMARK   49  A    between atoms: _123  and  _124
REMARK   50  A    between atoms: _128  and  _130
REMARK   51  A    between atoms: _130  and  _131
REMARK   52  A    between atoms: _130  and  _133
REMARK   53  A    between atoms: _133  and  _134
REMARK   54  A    between atoms: _136  and  _138
REMARK   55  A    between atoms: _138  and  _139
REMARK   56  A    between atoms: _138  and  _141
REMARK   57  A    between atoms: _141  and  _142
REMARK   58  A    between atoms: _144  and  _146
REMARK   59  A    between atoms: _146  and  _147
REMARK   60  A    between atoms: _146  and  _149
REMARK   61  A    between atoms: _149  and  _150
REMARK   62  A    between atoms: _153  and  _155
REMARK   63  A    between atoms: _155  and  _156
REMARK   64  A    between atoms: _155  and  _158
REMARK   65  A    between atoms: _158  and  _159
REMARK   66  A    between atoms: _162  and  _164
REMARK   67  A    between atoms: _164  and  _165
REMARK   68  A    between atoms: _164  and  _167
REMARK   69  A    between atoms: _167  and  _168
REMARK   70  A    between atoms: _170  and  _172
REMARK   71  A    between atoms: _172  and  _173
REMARK   72  A    between atoms: _176  and  _178
REMARK   73  A    between atoms: _178  and  _179
REMARK   74  A    between atoms: _178  and  _181
REMARK   75  A    between atoms: _181  and  _182
REMARK   76  A    between atoms: _182  and  _183
REMARK   77  A    between atoms: _186  and  _188
REMARK   78  A    between atoms: _188  and  _189
REMARK   79  A    between atoms: _188  and  _191
REMARK   80  A    between atoms: _191  and  _192
REMARK   81  A    between atoms: _192  and  _193
REMARK   82  A    between atoms: _195  and  _197
REMARK   83  A    between atoms: _197  and  _198
REMARK   84  A    between atoms: _197  and  _200
REMARK   85  A    between atoms: _200  and  _201
REMARK   86  A    between atoms: _206  and  _207
REMARK   87  A    between atoms: _209  and  _211
REMARK   88  A    between atoms: _211  and  _212
REMARK   89  A    between atoms: _211  and  _214
REMARK   90  A    between atoms: _214  and  _215
REMARK   91  A    between atoms: _215  and  _216
REMARK   92  A    between atoms: _216  and  _217
REMARK   93  A    between atoms: _216  and  _218
REMARK   94  A    between atoms: _217  and  MG_286
REMARK   95  A    between atoms: _221  and  _223
REMARK   96  A    between atoms: _223  and  _224
REMARK   97  A    between atoms: _223  and  _226
REMARK   98  A    between atoms: _226  and  _227
REMARK   99  A    between atoms: _230  and  _232
REMARK  100  A    between atoms: _232  and  _233
REMARK  101  A    between atoms: _232  and  _235
REMARK  102  A    between atoms: _235  and  _236
REMARK  103  A    between atoms: _239  and  _241
REMARK  104  A    between atoms: _241  and  _242
REMARK  105  A    between atoms: _241  and  _244
REMARK  106  A    between atoms: _247  and  _249
REMARK  107  A    between atoms: _249  and  _250
REMARK  108  A    between atoms: _249  and  _252
REMARK  109  A    between atoms: _252  and  _253
REMARK  110  A    between atoms: _256  and  _258
REMARK  111  A    between atoms: _258  and  _259
REMARK  112  A    between atoms: _258  and  _261
REMARK  113  A    between atoms: _261  and  _262
REMARK  114  A    between atoms: _267  and  _269
REMARK  115  A    between atoms: _269  and  _270
REMARK  116  A    between atoms: _269  and  _272
REMARK  117  A    between atoms: _272  and  _273
REMARK  118  A    between atoms: _273  and  _274
REMARK  119  A    between atoms: _276  and  _278
REMARK  120  A    between atoms: _278  and  _279
REMARK  121  A    between atoms: _281  and  _283
REMARK  122  A    between atoms: _283  and  _284
REMARK                            x       y       z     vdW  Elec       q    Type
REMARK                         _______ _______ _______ _____ _____    ______ ____
ROOT
ATOM      1  CA  THR A   2     -18.039  53.606  -4.138  0.00  0.00    +0.176 C 
ENDROOT
BRANCH   1   3
ATOM      2  C   PRO A   1     -17.875  54.664  -6.335  0.00  0.00    +0.239 C 
ATOM      3  N   THR A   2     -17.293  54.088  -5.293  0.00  0.00    -0.295 N 
ATOM      4  H   THR A   2     -16.259  53.975  -5.300  0.00  0.00    +0.150 HD
ATOM      5  O   PRO A   1     -19.099  54.812  -6.442  0.00  0.00    -0.274 OA
BRANCH   2   7
ATOM      6  N   PRO A   1     -17.592  55.090  -8.748  0.00  0.00    -0.210 NA
ATOM      7  CA  PRO A   1     -16.939  55.145  -7.441  0.00  0.00    +0.149 C 
ATOM      8  CB  PRO A   1     -16.640  56.631  -7.250  0.00  0.00    +0.028 C 
ATOM      9  CG  PRO A   1     -16.733  57.244  -8.608  0.00  0.00    +0.021 C 
ATOM     10  CD  PRO A   1     -17.634  56.400  -9.423  0.00  0.00    +0.089 C 
ENDBRANCH   2   7
ENDBRANCH   1   3
BRANCH   1  11
ATOM     11  C   THR A   2     -18.434  54.744  -3.197  0.00  0.00    +0.243 C 
ATOM     12  O   THR A   2     -19.506  54.698  -2.579  0.00  0.00    -0.273 OA
ATOM     13  N   LEU A   3     -17.556  55.739  -3.083  0.00  0.00    -0.298 N 
ATOM     14  H   LEU A   3     -16.673  55.685  -3.630  0.00  0.00    +0.150 HD
BRANCH  13  15
ATOM     15  CA  LEU A   3     -17.773  56.901  -2.229  0.00  0.00    +0.137 C 
BRANCH  15  16
ATOM     16  C   LEU A   3     -17.729  58.144  -3.090  0.00  0.00    +0.227 C 
ATOM     17  O   LEU A   3     -16.785  58.314  -3.869  0.00  0.00    -0.286 OA
ENDBRANCH  15  16
BRANCH  15  18
ATOM     18  CB  LEU A   3     -16.685  57.003  -1.159  0.00  0.00    +0.028 C 
BRANCH  18  19
ATOM     19  CG  LEU A   3     -16.538  55.848  -0.165  0.00  0.00    +0.002 C 
ATOM     20  CD2 LEU A   3     -15.344  56.102   0.731  0.00  0.00    +0.000 C 
ATOM     21  CD1 LEU A   3     -17.816  55.663   0.665  0.00  0.00    +0.000 C 
ENDBRANCH  18  19
ENDBRANCH  15  18
ENDBRANCH  13  15
ENDBRANCH   1  11
BRANCH   1  22
ATOM     22  CB  THR A   2     -17.201  52.531  -3.406  0.00  0.00    +0.137 C 
ATOM     23  CG2 THR A   2     -17.720  52.232  -1.993  0.00  0.00    +0.034 C 
BRANCH  22  24
ATOM     24  OG1 THR A   2     -17.203  51.341  -4.204  0.00  0.00    -0.382 OA
ATOM     25  HG1 THR A   2     -16.806  51.538  -5.089  0.00  0.00    +0.210 HD
ENDBRANCH  22  24
ENDBRANCH   1  22
TORSDOF 9
REMARK  Name = ../refined-set-2016/2cbz/2cbz_pocket.pdb
REMARK  122 active torsions:
REMARK  status: ('A' for Active; 'I' for Inactive)
REMARK    1  A    between atoms: _1  and  _3
REMARK    2  A    between atoms: _3  and  _4
REMARK    3  A    between atoms: _3  and  _6
REMARK    4  A    between atoms: _6  and  _7
REMARK    5  A    between atoms: _10  and  _12
REMARK    6  A    between atoms: _12  and  _13
REMARK    7  A    between atoms: _12  and  _15
REMARK    8  A    between atoms: _15  and  _16
REMARK    9  A    between atoms: _26  and  _28
REMARK   10  A    between atoms: _28  and  _29
REMARK   11  A    between atoms: _33  and  _34
REMARK   12  A    between atoms: _39  and  _41
REMARK   13  A    between atoms: _41  and  _42
REMARK   14  A    between atoms: _41  and  _44
REMARK   15  A    between atoms: _44  and  _45
REMARK   16  A    between atoms: _48  and  _50
REMARK   17  A    between atoms: _50  and  _51
REMARK   18  A    between atoms: _50  and  _53
REMARK   19  A    between atoms: _53  and  _54
REMARK   20  A    between atoms: _57  and  _59
REMARK   21  A    between atoms: _59  and  _60
REMARK   22  A    between atoms: _59  and  _62
REMARK   23  A    between atoms: _65  and  _67
REMARK   24  A    between atoms: _67  and  _68
REMARK   25  A    between atoms: _67  and  _70
REMARK   26  A    between atoms: _73  and  _75
REMARK   27  A    between atoms: _75  and  _76
REMARK   28  A    between atoms: _78  and  _80
REMARK   29  A    between atoms: _80  and  _81
REMARK   30  A    between atoms: _80  and  _83
REMARK   31  A    between atoms: _83  and  _84
REMARK   32  A    between atoms: _84  and  _85
REMARK   33  A    between atoms: _90  and  _92
REMARK   34  A    between atoms: _92  and  _93
REMARK   35  A    between atoms: _92  and  _95
REMARK   36  A    between atoms: _98  and  _100
REMARK   37  A    between atoms: _100  and  _101
REMARK   38  A    between atoms: _103  and  _105
REMARK   39  A    between atoms: _105  and  _106
REMARK   40  A    between atoms: _105  and  _108
REMARK   41  A    between atoms: _110  and  _112
REMARK   42  A    between atoms: _112  and  _113
REMARK   43  A    between atoms: _115  and  _117
REMARK   44  A    between atoms: _117  and  _118
REMARK   45  A    between atoms: _117  and  _120
REMARK   46  A    between atoms: _120  and  _121
REMARK   47  A    between atoms: _121  and  _122
REMARK   48  A    between atoms: _122  and  _123
REMARK   49  A    between atoms: _123  and  _124
REMARK   50  A    between atoms: _128  and  _130
REMARK   51  A    between atoms: _130  and  _131
REMARK   52  A    between atoms: _130  and  _133
REMARK   53  A    between atoms: _133  and  _134
REMARK   54  A    between atoms: _136  and  _138
REMARK   55  A    between atoms: _138  and  _139
REMARK   56  A    between atoms: _138  and  _141
REMARK   57  A    between atoms: _141  and  _142
REMARK   58  A    between atoms: _144  and  _146
REMARK   59  A    between atoms: _146  and  _147
REMARK   60  A    between atoms: _146  and  _149
REMARK   61  A    between atoms: _149  and  _150
REMARK   62  A    between atoms: _153  and  _155
REMARK   63  A    between atoms: _155  and  _156
REMARK   64  A    between atoms: _155  and  _158
REMARK   65  A    between atoms: _158  and  _159
REMARK   66  A    between atoms: _162  and  _164
REMARK   67  A    between atoms: _164  and  _165
REMARK   68  A    between atoms: _164  and  _167
REMARK   69  A    between atoms: _167  and  _168
REMARK   70  A    between atoms: _170  and  _172
REMARK   71  A    between atoms: _172  and  _173
REMARK   72  A    between atoms: _176  and  _178
REMARK   73  A    between atoms: _178  and  _179
REMARK   74  A    between atoms: _178  and  _181
REMARK   75  A    between atoms: _181  and  _182
REMARK   76  A    between atoms: _182  and  _183
REMARK   77  A    between atoms: _186  and  _188
REMARK   78  A    between atoms: _188  and  _189
REMARK   79  A    between atoms: _188  and  _191
REMARK   80  A    between atoms: _191  and  _192
REMARK   81  A    between atoms: _192  and  _193
REMARK   82  A    between atoms: _195  and  _197
REMARK   83  A    between atoms: _197  and  _198
REMARK   84  A    between atoms: _197  and  _200
REMARK   85  A    between atoms: _200  and  _201
REMARK   86  A    between atoms: _206  and  _207
REMARK   87  A    between atoms: _209  and  _211
REMARK   88  A    between atoms: _211  and  _212
REMARK   89  A    between atoms: _211  and  _214
REMARK   90  A    between atoms: _214  and  _215
REMARK   91  A    between atoms: _215  and  _216
REMARK   92  A    between atoms: _216  and  _217
REMARK   93  A    between atoms: _216  and  _218
REMARK   94  A    between atoms: _217  and  MG_286
REMARK   95  A    between atoms: _221  and  _223
REMARK   96  A    between atoms: _223  and  _224
REMARK   97  A    between atoms: _223  and  _226
REMARK   98  A    between atoms: _226  and  _227
REMARK   99  A    between atoms: _230  and  _232
REMARK  100  A    between atoms: _232  and  _233
REMARK  101  A    between atoms: _232  and  _235
REMARK  102  A    between atoms: _235  and  _236
REMARK  103  A    between atoms: _239  and  _241
REMARK  104  A    between atoms: _241  and  _242
REMARK  105  A    between atoms: _241  and  _244
REMARK  106  A    between atoms: _247  and  _249
REMARK  107  A    between atoms: _249  and  _250
REMARK  108  A    between atoms: _249  and  _252
REMARK  109  A    between atoms: _252  and  _253
REMARK  110  A    between atoms: _256  and  _258
REMARK  111  A    between atoms: _258  and  _259
REMARK  112  A    between atoms: _258  and  _261
REMARK  113  A    between atoms: _261  and  _262
REMARK  114  A    between atoms: _267  and  _269
REMARK  115  A    between atoms: _269  and  _270
REMARK  116  A    between atoms: _269  and  _272
REMARK  117  A    between atoms: _272  and  _273
REMARK  118  A    between atoms: _273  and  _274
REMARK  119  A    between atoms: _276  and  _278
REMARK  120  A    between atoms: _278  and  _279
REMARK  121  A    between atoms: _281  and  _283
REMARK  122  A    between atoms: _283  and  _284
REMARK                            x       y       z     vdW  Elec       q    Type
REMARK                         _______ _______ _______ _____ _____    ______ ____
ROOT
ATOM      1  C   GLY A   8     -19.171  52.677   3.662  0.00  0.00    +0.243 C 
ATOM      2  N   LYS A   9     -19.611  52.217   4.836  0.00  0.00    -0.297 N 
ATOM      3  H   LYS A   9     -20.466  51.626   4.868  0.00  0.00    +0.150 HD
ATOM      4  O   GLY A   8     -18.163  53.386   3.564  0.00  0.00    -0.273 OA
ENDROOT
BRANCH   1   5
ATOM      5  CA  GLY A   8     -19.971  52.316   2.417  0.00  0.00    +0.176 C 
BRANCH   5   7
ATOM      6  C   CYS A   7     -22.397  52.632   2.288  0.00  0.00    +0.242 C 
ATOM      7  N   GLY A   8     -21.356  51.873   2.629  0.00  0.00    -0.295 N 
ATOM      8  H   GLY A   8     -21.529  50.941   3.057  0.00  0.00    +0.150 HD
ATOM      9  O   CYS A   7     -22.277  53.796   1.852  0.00  0.00    -0.273 OA
BRANCH   6  10
ATOM     10  CA  CYS A   7     -23.790  52.016   2.467  0.00  0.00    +0.160 C 
BRANCH  10  12
ATOM     11  C   GLY A   6     -23.565  49.639   1.889  0.00  0.00    +0.243 C 
ATOM     12  N   CYS A   7     -23.775  50.586   2.815  0.00  0.00    -0.296 N 
ATOM     13  H   CYS A   7     -23.931  50.303   3.803  0.00  0.00    +0.150 HD
ATOM     14  O   GLY A   6     -23.278  49.895   0.721  0.00  0.00    -0.273 OA
BRANCH  11  15
ATOM     15  CA  GLY A   6     -23.665  48.191   2.328  0.00  0.00    +0.176 C 
BRANCH  15  17
ATOM     16  C   VAL A   5     -25.414  47.902   4.000  0.00  0.00    +0.241 C 
ATOM     17  N   GLY A   6     -24.121  47.993   3.700  0.00  0.00    -0.295 N 
ATOM     18  H   GLY A   6     -23.417  47.921   4.463  0.00  0.00    +0.150 HD
ATOM     19  O   VAL A   5     -26.309  48.112   3.178  0.00  0.00    -0.273 OA
BRANCH  16  20
ATOM     20  CA  VAL A   5     -25.748  47.580   5.465  0.00  0.00    +0.149 C 
BRANCH  20  22
ATOM     21  C   GLN A   4     -26.602  49.855   5.745  0.00  0.00    +0.241 C 
ATOM     22  N   VAL A   5     -26.709  48.551   5.988  0.00  0.00    -0.297 N 
ATOM     23  H   VAL A   5     -27.502  48.211   6.569  0.00  0.00    +0.150 HD
ATOM     24  O   GLN A   4     -25.626  50.362   5.186  0.00  0.00    -0.273 OA
BRANCH  21  25
ATOM     25  CA  GLN A   4     -27.772  50.717   6.212  0.00  0.00    +0.149 C 
BRANCH  25  28
ATOM     26  C   GLY A   3     -26.371  52.170   7.557  0.00  0.00    +0.243 C 
ATOM     27  O   GLY A   3     -25.774  51.213   8.071  0.00  0.00    -0.273 OA
ATOM     28  N   GLN A   4     -27.347  52.030   6.672  0.00  0.00    -0.297 N 
ATOM     29  H   GLN A   4     -27.820  52.877   6.298  0.00  0.00    +0.150 HD
BRANCH  26  30
ATOM     30  CA  GLY A   3     -26.019  53.594   7.930  0.00  0.00    +0.176 C 
BRANCH  30  32
ATOM     31  C   VAL A   2     -24.439  54.668   9.439  0.00  0.00    +0.241 C 
ATOM     32  N   GLY A   3     -25.185  53.612   9.130  0.00  0.00    -0.295 N 
ATOM     33  H   GLY A   3     -25.175  52.781   9.755  0.00  0.00    +0.150 HD
ATOM     34  O   VAL A   2     -24.330  55.658   8.718  0.00  0.00    -0.273 OA
BRANCH  31  35
ATOM     35  CA  VAL A   2     -23.701  54.596  10.768  0.00  0.00    +0.148 C 
BRANCH  35  38
ATOM     36  C   VAL A   1     -21.423  55.275  11.281  0.00  0.00    +0.238 C 
ATOM     37  O   VAL A   1     -21.126  54.140  11.671  0.00  0.00    -0.274 OA
ATOM     38  N   VAL A   2     -22.624  55.581  10.795  0.00  0.00    -0.297 N 
ATOM     39  H   VAL A   2     -22.798  56.538  10.428  0.00  0.00    +0.150 HD
BRANCH  36  40
ATOM     40  CA  VAL A   1     -20.407  56.417  11.361  0.00  0.00    +0.145 C 
BRANCH  40  41
ATOM     41  CB  VAL A   1     -19.184  56.130  10.445  0.00  0.00    +0.025 C 
ATOM     42  CG2 VAL A   1     -18.173  57.286  10.543  0.00  0.00    +0.002 C 
ATOM     43  CG1 VAL A   1     -19.632  55.931   9.000  0.00  0.00    +0.002 C 
ENDBRANCH  40  41
BRANCH  40  44
ATOM     44  N   VAL A   1     -20.017  56.489  12.759  0.00  0.00    -0.238 NA
ATOM     45  H   VAL A   1     -19.680  55.618  13.217  0.00  0.00    +0.142 HD
ENDBRANCH  40  44
ENDBRANCH  36  40
ENDBRANCH  35  38
BRANCH  35  46
ATOM     46  CB  VAL A   2     -24.718  54.796  11.935  0.00  0.00    +0.027 C 
ATOM     47  CG2 VAL A   2     -24.012  54.755  13.288  0.00  0.00    +0.002 C 
ATOM     48  CG1 VAL A   2     -25.516  56.104  11.778  0.00  0.00    +0.002 C 
ENDBRANCH  35  46
ENDBRANCH  31  35
ENDBRANCH  30  32
ENDBRANCH  26  30
ENDBRANCH  25  28
BRANCH  25  49
ATOM     49  CB  GLN A   4     -28.782  50.867   5.076  0.00  0.00    +0.039 C 
BRANCH  49  50
ATOM     50  CG  GLN A   4     -29.361  49.535   4.640  0.00  0.00    +0.087 C 
BRANCH  50  51
ATOM     51  CD  GLN A   4     -30.472  49.662   3.618  0.00  0.00    +0.219 C 
ATOM     52  NE2 GLN A   4     -31.277  48.616   3.510  0.00  0.00    -0.329 N 
ATOM     53 HE21 GLN A   4     -31.120  47.776   4.103  0.00  0.00    +0.145 HD
ATOM     54 HE22 GLN A   4     -32.066  48.635   2.833  0.00  0.00    +0.145 HD
ATOM     55  OE1 GLN A   4     -30.612  50.686   2.939  0.00  0.00    -0.275 OA
ENDBRANCH  50  51
ENDBRANCH  49  50
ENDBRANCH  25  49
ENDBRANCH  21  25
ENDBRANCH  20  22
BRANCH  20  56
ATOM     56  CB  VAL A   5     -26.286  46.128   5.609  0.00  0.00    +0.027 C 
ATOM     57  CG2 VAL A   5     -26.264  45.709   7.067  0.00  0.00    +0.002 C 
ATOM     58  CG1 VAL A   5     -25.496  45.155   4.726  0.00  0.00    +0.002 C 
ENDBRANCH  20  56
ENDBRANCH  16  20
ENDBRANCH  15  17
ENDBRANCH  11  15
ENDBRANCH  10  12
BRANCH  10  59
ATOM     59  CB  CYS A   7     -24.567  52.829   3.509  0.00  0.00    +0.098 C 
ATOM     60  SG  CYS A   7     -23.786  52.833   5.140  0.00  0.00    -0.080 S 
ENDBRANCH  10  59
ENDBRANCH   6  10
ENDBRANCH   5   7
ENDBRANCH   1   5
BRANCH   2  61
ATOM     61  CA  LYS A   9     -18.898  52.537   6.091  0.00  0.00    +0.149 C 
BRANCH  61  62
ATOM     62  C   LYS A   9     -17.456  52.018   6.137  0.00  0.00    +0.241 C 
ATOM     63  O   LYS A   9     -16.525  52.757   6.472  0.00  0.00    -0.273 OA
ATOM     64  N   SER A  10     -17.275  50.739   5.832  0.00  0.00    -0.295 N 
ATOM     65  H   SER A  10     -18.092  50.147   5.579  0.00  0.00    +0.150 HD
BRANCH  64  66
ATOM     66  CA  SER A  10     -15.941  50.160   5.850  0.00  0.00    +0.178 C 
BRANCH  66  67
ATOM     67  C   SER A  10     -15.069  50.836   4.807  0.00  0.00    +0.243 C 
ATOM     68  O   SER A  10     -13.875  51.076   5.037  0.00  0.00    -0.273 OA
ATOM     69  N   SER A  11     -15.670  51.145   3.656  0.00  0.00    -0.295 N 
ATOM     70  H   SER A  11     -16.673  50.905   3.518  0.00  0.00    +0.150 HD
BRANCH  69  71
ATOM     71  CA  SER A  11     -14.933  51.816   2.590  0.00  0.00    +0.178 C 
BRANCH  71  72
ATOM     72  C   SER A  11     -14.452  53.190   3.029  0.00  0.00    +0.243 C 
ATOM     73  N   LEU A  12     -15.271  53.895   3.808  0.00  0.00    -0.297 N 
ATOM     74  H   LEU A  12     -16.211  53.521   4.050  0.00  0.00    +0.150 HD
ATOM     75  O   SER A  11     -13.342  53.601   2.674  0.00  0.00    -0.273 OA
BRANCH  73  76
ATOM     76  CA  LEU A  12     -14.844  55.196   4.322  0.00  0.00    +0.149 C 
BRANCH  76  77
ATOM     77  C   LEU A  12     -13.560  55.034   5.132  0.00  0.00    +0.241 C 
ATOM     78  N   LEU A  13     -13.512  54.024   5.998  0.00  0.00    -0.297 N 
ATOM     79  H   LEU A  13     -14.339  53.409   6.137  0.00  0.00    +0.150 HD
ATOM     80  O   LEU A  12     -12.611  55.803   4.961  0.00  0.00    -0.273 OA
BRANCH  78  81
ATOM     81  CA  LEU A  13     -12.280  53.792   6.752  0.00  0.00    +0.149 C 
BRANCH  81  82
ATOM     82  C   LEU A  13     -11.119  53.434   5.835  0.00  0.00    +0.241 C 
ATOM     83  O   LEU A  13     -10.015  53.954   6.006  0.00  0.00    -0.273 OA
ATOM     84  N   SER A  14     -11.367  52.573   4.846  0.00  0.00    -0.295 N 
ATOM     85  H   SER A  14     -12.309  52.141   4.759  0.00  0.00    +0.150 HD
BRANCH  84  86
ATOM     86  CA  SER A  14     -10.313  52.232   3.878  0.00  0.00    +0.178 C 
BRANCH  86  87
ATOM     87  C   SER A  14      -9.760  53.474   3.175  0.00  0.00    +0.243 C 
ATOM     88  O   SER A  14      -8.543  53.593   2.957  0.00  0.00    -0.273 OA
ATOM     89  N   ALA A  15     -10.662  54.391   2.820  0.00  0.00    -0.298 N 
ATOM     90  H   ALA A  15     -11.665  54.216   3.031  0.00  0.00    +0.150 HD
BRANCH  89  91
ATOM     91  CA  ALA A  15     -10.286  55.642   2.139  0.00  0.00    +0.137 C 
ATOM     92  CB  ALA A  15     -11.538  56.446   1.803  0.00  0.00    +0.030 C 
BRANCH  91  93
ATOM     93  C   ALA A  15      -9.347  56.453   3.028  0.00  0.00    +0.227 C 
ATOM     94  O   ALA A  15      -8.313  56.964   2.570  0.00  0.00    -0.286 OA
ENDBRANCH  91  93
ENDBRANCH  89  91
ENDBRANCH  86  87
BRANCH  86  95
ATOM     95  CB  SER A  14     -10.836  51.260   2.825  0.00  0.00    +0.166 C 
BRANCH  95  96
ATOM     96  OG  SER A  14     -11.297  50.053   3.412  0.00  0.00    -0.380 OA
ATOM     97  H   SER A  14     -10.552  49.618   3.897  0.00  0.00    +0.211 HD
ENDBRANCH  95  96
ENDBRANCH  86  95
ENDBRANCH  84  86
ENDBRANCH  81  82
BRANCH  81  98
ATOM     98  CB  LEU A  13     -12.473  52.719   7.823  0.00  0.00    +0.029 C 
BRANCH  98  99
ATOM     99  CG  LEU A  13     -13.636  52.958   8.797  0.00  0.00    +0.002 C 
ATOM    100  CD2 LEU A  13     -13.622  51.884   9.875  0.00  0.00    +0.000 C 
ATOM    101  CD1 LEU A  13     -13.604  54.360   9.412  0.00  0.00    +0.000 C 
ENDBRANCH  98  99
ENDBRANCH  81  98
ENDBRANCH  78  81
ENDBRANCH  76  77
BRANCH  76 102
ATOM    102  CB  LEU A  12     -15.939  55.860   5.169  0.00  0.00    +0.029 C 
BRANCH 102 103
ATOM    103  CG  LEU A  12     -15.543  57.239   5.718  0.00  0.00    +0.002 C 
ATOM    104  CD2 LEU A  12     -16.616  57.751   6.662  0.00  0.00    +0.000 C 
ATOM    105  CD1 LEU A  12     -15.264  58.242   4.576  0.00  0.00    +0.000 C 
ENDBRANCH 102 103
ENDBRANCH  76 102
ENDBRANCH  73  76
ENDBRANCH  71  72
BRANCH  71 106
ATOM    106  CB  SER A  11     -15.777  51.921   1.321  0.00  0.00    +0.166 C 
BRANCH 106 107
ATOM    107  OG  SER A  11     -15.985  50.644   0.753  0.00  0.00    -0.380 OA
ATOM    108  H   SER A  11     -16.456  50.067   1.405  0.00  0.00    +0.211 HD
ENDBRANCH 106 107
ENDBRANCH  71 106
ENDBRANCH  69  71
ENDBRANCH  66  67
BRANCH  66 109
ATOM    109  CB  SER A  10     -16.007  48.653   5.610  0.00  0.00    +0.166 C 
BRANCH 109 110
ATOM    110  OG  SER A  10     -16.658  48.014   6.695  0.00  0.00    -0.380 OA
ATOM    111  H   SER A  10     -16.695  47.039   6.528  0.00  0.00    +0.211 HD
ENDBRANCH 109 110
ENDBRANCH  66 109
ENDBRANCH  64  66
ENDBRANCH  61  62
BRANCH  61 112
ATOM    112  CB  LYS A   9     -19.680  52.009   7.297  0.00  0.00    +0.029 C 
BRANCH 112 113
ATOM    113  CG  LYS A   9     -21.132  52.491   7.341  0.00  0.00    +0.000 C 
BRANCH 113 114
ATOM    114  CD  LYS A   9     -21.945  51.896   8.502  0.00  0.00    -0.024 C 
BRANCH 114 115
ATOM    115  CE  LYS A   9     -22.143  50.393   8.388  0.00  0.00    -0.086 C 
BRANCH 115 116
ATOM    116  NZ  LYS A   9     -23.021  50.003   7.245  0.00  0.00    +0.380 N 
ATOM    117  HZ1 LYS A   9     -23.959  50.437   7.366  0.00  0.00    -0.089 HD
ATOM    118  HZ2 LYS A   9     -23.117  48.968   7.221  0.00  0.00    -0.089 HD
ATOM    119  HZ3 LYS A   9     -22.597  50.334   6.355  0.00  0.00    -0.089 HD
ENDBRANCH 115 116
ENDBRANCH 114 115
ENDBRANCH 113 114
ENDBRANCH 112 113
ENDBRANCH  61 112
ENDBRANCH   2  61
TORSDOF 52
REMARK  Name = ../refined-set-2016/2cbz/2cbz_pocket.pdb
REMARK  122 active torsions:
REMARK  status: ('A' for Active; 'I' for Inactive)
REMARK    1  A    between atoms: _1  and  _3
REMARK    2  A    between atoms: _3  and  _4
REMARK    3  A    between atoms: _3  and  _6
REMARK    4  A    between atoms: _6  and  _7
REMARK    5  A    between atoms: _10  and  _12
REMARK    6  A    between atoms: _12  and  _13
REMARK    7  A    between atoms: _12  and  _15
REMARK    8  A    between atoms: _15  and  _16
REMARK    9  A    between atoms: _26  and  _28
REMARK   10  A    between atoms: _28  and  _29
REMARK   11  A    between atoms: _33  and  _34
REMARK   12  A    between atoms: _39  and  _41
REMARK   13  A    between atoms: _41  and  _42
REMARK   14  A    between atoms: _41  and  _44
REMARK   15  A    between atoms: _44  and  _45
REMARK   16  A    between atoms: _48  and  _50
REMARK   17  A    between atoms: _50  and  _51
REMARK   18  A    between atoms: _50  and  _53
REMARK   19  A    between atoms: _53  and  _54
REMARK   20  A    between atoms: _57  and  _59
REMARK   21  A    between atoms: _59  and  _60
REMARK   22  A    between atoms: _59  and  _62
REMARK   23  A    between atoms: _65  and  _67
REMARK   24  A    between atoms: _67  and  _68
REMARK   25  A    between atoms: _67  and  _70
REMARK   26  A    between atoms: _73  and  _75
REMARK   27  A    between atoms: _75  and  _76
REMARK   28  A    between atoms: _78  and  _80
REMARK   29  A    between atoms: _80  and  _81
REMARK   30  A    between atoms: _80  and  _83
REMARK   31  A    between atoms: _83  and  _84
REMARK   32  A    between atoms: _84  and  _85
REMARK   33  A    between atoms: _90  and  _92
REMARK   34  A    between atoms: _92  and  _93
REMARK   35  A    between atoms: _92  and  _95
REMARK   36  A    between atoms: _98  and  _100
REMARK   37  A    between atoms: _100  and  _101
REMARK   38  A    between atoms: _103  and  _105
REMARK   39  A    between atoms: _105  and  _106
REMARK   40  A    between atoms: _105  and  _108
REMARK   41  A    between atoms: _110  and  _112
REMARK   42  A    between atoms: _112  and  _113
REMARK   43  A    between atoms: _115  and  _117
REMARK   44  A    between atoms: _117  and  _118
REMARK   45  A    between atoms: _117  and  _120
REMARK   46  A    between atoms: _120  and  _121
REMARK   47  A    between atoms: _121  and  _122
REMARK   48  A    between atoms: _122  and  _123
REMARK   49  A    between atoms: _123  and  _124
REMARK   50  A    between atoms: _128  and  _130
REMARK   51  A    between atoms: _130  and  _131
REMARK   52  A    between atoms: _130  and  _133
REMARK   53  A    between atoms: _133  and  _134
REMARK   54  A    between atoms: _136  and  _138
REMARK   55  A    between atoms: _138  and  _139
REMARK   56  A    between atoms: _138  and  _141
REMARK   57  A    between atoms: _141  and  _142
REMARK   58  A    between atoms: _144  and  _146
REMARK   59  A    between atoms: _146  and  _147
REMARK   60  A    between atoms: _146  and  _149
REMARK   61  A    between atoms: _149  and  _150
REMARK   62  A    between atoms: _153  and  _155
REMARK   63  A    between atoms: _155  and  _156
REMARK   64  A    between atoms: _155  and  _158
REMARK   65  A    between atoms: _158  and  _159
REMARK   66  A    between atoms: _162  and  _164
REMARK   67  A    between atoms: _164  and  _165
REMARK   68  A    between atoms: _164  and  _167
REMARK   69  A    between atoms: _167  and  _168
REMARK   70  A    between atoms: _170  and  _172
REMARK   71  A    between atoms: _172  and  _173
REMARK   72  A    between atoms: _176  and  _178
REMARK   73  A    between atoms: _178  and  _179
REMARK   74  A    between atoms: _178  and  _181
REMARK   75  A    between atoms: _181  and  _182
REMARK   76  A    between atoms: _182  and  _183
REMARK   77  A    between atoms: _186  and  _188
REMARK   78  A    between atoms: _188  and  _189
REMARK   79  A    between atoms: _188  and  _191
REMARK   80  A    between atoms: _191  and  _192
REMARK   81  A    between atoms: _192  and  _193
REMARK   82  A    between atoms: _195  and  _197
REMARK   83  A    between atoms: _197  and  _198
REMARK   84  A    between atoms: _197  and  _200
REMARK   85  A    between atoms: _200  and  _201
REMARK   86  A    between atoms: _206  and  _207
REMARK   87  A    between atoms: _209  and  _211
REMARK   88  A    between atoms: _211  and  _212
REMARK   89  A    between atoms: _211  and  _214
REMARK   90  A    between atoms: _214  and  _215
REMARK   91  A    between atoms: _215  and  _216
REMARK   92  A    between atoms: _216  and  _217
REMARK   93  A    between atoms: _216  and  _218
REMARK   94  A    between atoms: _217  and  MG_286
REMARK   95  A    between atoms: _221  and  _223
REMARK   96  A    between atoms: _223  and  _224
REMARK   97  A    between atoms: _223  and  _226
REMARK   98  A    between atoms: _226  and  _227
REMARK   99  A    between atoms: _230  and  _232
REMARK  100  A    between atoms: _232  and  _233
REMARK  101  A    between atoms: _232  and  _235
REMARK  102  A    between atoms: _235  and  _236
REMARK  103  A    between atoms: _239  and  _241
REMARK  104  A    between atoms: _241  and  _242
REMARK  105  A    between atoms: _241  and  _244
REMARK  106  A    between atoms: _247  and  _249
REMARK  107  A    between atoms: _249  and  _250
REMARK  108  A    between atoms: _249  and  _252
REMARK  109  A    between atoms: _252  and  _253
REMARK  110  A    between atoms: _256  and  _258
REMARK  111  A    between atoms: _258  and  _259
REMARK  112  A    between atoms: _258  and  _261
REMARK  113  A    between atoms: _261  and  _262
REMARK  114  A    between atoms: _267  and  _269
REMARK  115  A    between atoms: _269  and  _270
REMARK  116  A    between atoms: _269  and  _272
REMARK  117  A    between atoms: _272  and  _273
REMARK  118  A    between atoms: _273  and  _274
REMARK  119  A    between atoms: _276  and  _278
REMARK  120  A    between atoms: _278  and  _279
REMARK  121  A    between atoms: _281  and  _283
REMARK  122  A    between atoms: _283  and  _284
REMARK                            x       y       z     vdW  Elec       q    Type
REMARK                         _______ _______ _______ _____ _____    ______ ____
ROOT
ATOM      1  C   GLU A   1      -7.185  51.898  -0.544  0.00  0.00    +0.238 C 
ATOM      2  N   MET A   2      -7.852  53.013  -0.848  0.00  0.00    -0.298 N 
ATOM      3  H   MET A   2      -7.793  53.823  -0.199  0.00  0.00    +0.150 HD
ATOM      4  O   GLU A   1      -7.284  50.844  -1.182  0.00  0.00    -0.274 OA
ENDROOT
BRANCH   1   5
ATOM      5  CA  GLU A   1      -6.255  51.989   0.661  0.00  0.00    +0.145 C 
BRANCH   5   6
ATOM      6  N   GLU A   1      -6.205  53.333   1.223  0.00  0.00    -0.238 NA
ATOM      7  H   GLU A   1      -7.000  53.667   1.804  0.00  0.00    +0.142 HD
ENDBRANCH   5   6
BRANCH   5   8
ATOM      8  CB  GLU A   1      -6.614  50.960   1.745  0.00  0.00    +0.038 C 
BRANCH   8   9
ATOM      9  CG  GLU A   1      -5.431  50.696   2.675  0.00  0.00    +0.116 C 
BRANCH   9  10
ATOM     10  CD  GLU A   1      -5.788  49.916   3.926  0.00  0.00    +0.365 C 
ATOM     11  OE2 GLU A   1      -4.919  49.845   4.815  0.00  0.00    -0.246 OA
ATOM     12  OE1 GLU A   1      -6.910  49.370   4.029  0.00  0.00    -0.246 OA
ENDBRANCH   9  10
ENDBRANCH   8   9
ENDBRANCH   5   8
ENDBRANCH   1   5
BRANCH   2  13
ATOM     13  CA  MET A   2      -8.660  53.139  -2.055  0.00  0.00    +0.138 C 
BRANCH  13  14
ATOM     14  C   MET A   2      -7.955  54.051  -3.056  0.00  0.00    +0.227 C 
ATOM     15  O   MET A   2      -6.844  54.523  -2.814  0.00  0.00    -0.286 OA
ENDBRANCH  13  14
BRANCH  13  16
ATOM     16  CB  MET A   2     -10.057  53.689  -1.728  0.00  0.00    +0.039 C 
BRANCH  16  17
ATOM     17  CG  MET A   2     -10.887  52.765  -0.851  0.00  0.00    +0.060 C 
BRANCH  17  18
ATOM     18  SD  MET A   2     -12.572  53.351  -0.575  0.00  0.00    -0.139 S 
ATOM     19  CE  MET A   2     -13.320  53.052  -2.179  0.00  0.00    +0.069 C 
ENDBRANCH  17  18
ENDBRANCH  16  17
ENDBRANCH  13  16
ENDBRANCH   2  13
TORSDOF 10
REMARK  Name = ../refined-set-2016/2cbz/2cbz_pocket.pdb
REMARK  122 active torsions:
REMARK  status: ('A' for Active; 'I' for Inactive)
REMARK    1  A    between atoms: _1  and  _3
REMARK    2  A    between atoms: _3  and  _4
REMARK    3  A    between atoms: _3  and  _6
REMARK    4  A    between atoms: _6  and  _7
REMARK    5  A    between atoms: _10  and  _12
REMARK    6  A    between atoms: _12  and  _13
REMARK    7  A    between atoms: _12  and  _15
REMARK    8  A    between atoms: _15  and  _16
REMARK    9  A    between atoms: _26  and  _28
REMARK   10  A    between atoms: _28  and  _29
REMARK   11  A    between atoms: _33  and  _34
REMARK   12  A    between atoms: _39  and  _41
REMARK   13  A    between atoms: _41  and  _42
REMARK   14  A    between atoms: _41  and  _44
REMARK   15  A    between atoms: _44  and  _45
REMARK   16  A    between atoms: _48  and  _50
REMARK   17  A    between atoms: _50  and  _51
REMARK   18  A    between atoms: _50  and  _53
REMARK   19  A    between atoms: _53  and  _54
REMARK   20  A    between atoms: _57  and  _59
REMARK   21  A    between atoms: _59  and  _60
REMARK   22  A    between atoms: _59  and  _62
REMARK   23  A    between atoms: _65  and  _67
REMARK   24  A    between atoms: _67  and  _68
REMARK   25  A    between atoms: _67  and  _70
REMARK   26  A    between atoms: _73  and  _75
REMARK   27  A    between atoms: _75  and  _76
REMARK   28  A    between atoms: _78  and  _80
REMARK   29  A    between atoms: _80  and  _81
REMARK   30  A    between atoms: _80  and  _83
REMARK   31  A    between atoms: _83  and  _84
REMARK   32  A    between atoms: _84  and  _85
REMARK   33  A    between atoms: _90  and  _92
REMARK   34  A    between atoms: _92  and  _93
REMARK   35  A    between atoms: _92  and  _95
REMARK   36  A    between atoms: _98  and  _100
REMARK   37  A    between atoms: _100  and  _101
REMARK   38  A    between atoms: _103  and  _105
REMARK   39  A    between atoms: _105  and  _106
REMARK   40  A    between atoms: _105  and  _108
REMARK   41  A    between atoms: _110  and  _112
REMARK   42  A    between atoms: _112  and  _113
REMARK   43  A    between atoms: _115  and  _117
REMARK   44  A    between atoms: _117  and  _118
REMARK   45  A    between atoms: _117  and  _120
REMARK   46  A    between atoms: _120  and  _121
REMARK   47  A    between atoms: _121  and  _122
REMARK   48  A    between atoms: _122  and  _123
REMARK   49  A    between atoms: _123  and  _124
REMARK   50  A    between atoms: _128  and  _130
REMARK   51  A    between atoms: _130  and  _131
REMARK   52  A    between atoms: _130  and  _133
REMARK   53  A    between atoms: _133  and  _134
REMARK   54  A    between atoms: _136  and  _138
REMARK   55  A    between atoms: _138  and  _139
REMARK   56  A    between atoms: _138  and  _141
REMARK   57  A    between atoms: _141  and  _142
REMARK   58  A    between atoms: _144  and  _146
REMARK   59  A    between atoms: _146  and  _147
REMARK   60  A    between atoms: _146  and  _149
REMARK   61  A    between atoms: _149  and  _150
REMARK   62  A    between atoms: _153  and  _155
REMARK   63  A    between atoms: _155  and  _156
REMARK   64  A    between atoms: _155  and  _158
REMARK   65  A    between atoms: _158  and  _159
REMARK   66  A    between atoms: _162  and  _164
REMARK   67  A    between atoms: _164  and  _165
REMARK   68  A    between atoms: _164  and  _167
REMARK   69  A    between atoms: _167  and  _168
REMARK   70  A    between atoms: _170  and  _172
REMARK   71  A    between atoms: _172  and  _173
REMARK   72  A    between atoms: _176  and  _178
REMARK   73  A    between atoms: _178  and  _179
REMARK   74  A    between atoms: _178  and  _181
REMARK   75  A    between atoms: _181  and  _182
REMARK   76  A    between atoms: _182  and  _183
REMARK   77  A    between atoms: _186  and  _188
REMARK   78  A    between atoms: _188  and  _189
REMARK   79  A    between atoms: _188  and  _191
REMARK   80  A    between atoms: _191  and  _192
REMARK   81  A    between atoms: _192  and  _193
REMARK   82  A    between atoms: _195  and  _197
REMARK   83  A    between atoms: _197  and  _198
REMARK   84  A    between atoms: _197  and  _200
REMARK   85  A    between atoms: _200  and  _201
REMARK   86  A    between atoms: _206  and  _207
REMARK   87  A    between atoms: _209  and  _211
REMARK   88  A    between atoms: _211  and  _212
REMARK   89  A    between atoms: _211  and  _214
REMARK   90  A    between atoms: _214  and  _215
REMARK   91  A    between atoms: _215  and  _216
REMARK   92  A    between atoms: _216  and  _217
REMARK   93  A    between atoms: _216  and  _218
REMARK   94  A    between atoms: _217  and  MG_286
REMARK   95  A    between atoms: _221  and  _223
REMARK   96  A    between atoms: _223  and  _224
REMARK   97  A    between atoms: _223  and  _226
REMARK   98  A    between atoms: _226  and  _227
REMARK   99  A    between atoms: _230  and  _232
REMARK  100  A    between atoms: _232  and  _233
REMARK  101  A    between atoms: _232  and  _235
REMARK  102  A    between atoms: _235  and  _236
REMARK  103  A    between atoms: _239  and  _241
REMARK  104  A    between atoms: _241  and  _242
REMARK  105  A    between atoms: _241  and  _244
REMARK  106  A    between atoms: _247  and  _249
REMARK  107  A    between atoms: _249  and  _250
REMARK  108  A    between atoms: _249  and  _252
REMARK  109  A    between atoms: _252  and  _253
REMARK  110  A    between atoms: _256  and  _258
REMARK  111  A    between atoms: _258  and  _259
REMARK  112  A    between atoms: _258  and  _261
REMARK  113  A    between atoms: _261  and  _262
REMARK  114  A    between atoms: _267  and  _269
REMARK  115  A    between atoms: _269  and  _270
REMARK  116  A    between atoms: _269  and  _272
REMARK  117  A    between atoms: _272  and  _273
REMARK  118  A    between atoms: _273  and  _274
REMARK  119  A    between atoms: _276  and  _278
REMARK  120  A    between atoms: _278  and  _279
REMARK  121  A    between atoms: _281  and  _283
REMARK  122  A    between atoms: _283  and  _284
REMARK                            x       y       z     vdW  Elec       q    Type
REMARK                         _______ _______ _______ _____ _____    ______ ____
ROOT
ATOM      1  CG  TYR A   1      -7.942  49.425  10.278  0.00  0.00    -0.020 A 
ATOM      2  CD2 TYR A   1      -9.261  49.890  10.305  0.00  0.00    -0.001 A 
ATOM      3  CE2 TYR A   1     -10.192  49.446   9.356  0.00  0.00    +0.036 A 
ATOM      4  CZ  TYR A   1      -9.793  48.546   8.366  0.00  0.00    +0.134 A 
ATOM      5  CE1 TYR A   1      -8.489  48.083   8.325  0.00  0.00    +0.036 A 
ATOM      6  CD1 TYR A   1      -7.575  48.533   9.265  0.00  0.00    -0.001 A 
ENDROOT
BRANCH   4   7
ATOM      7  OH  TYR A   1     -10.677  48.092   7.402  0.00  0.00    -0.506 OA
ATOM      8  HH  TYR A   1     -11.566  48.502   7.552  0.00  0.00    +0.292 HD
ENDBRANCH   4   7
BRANCH   1   9
ATOM      9  CB  TYR A   1      -6.893  49.924  11.245  0.00  0.00    +0.051 C 
BRANCH   9  10
ATOM     10  CA  TYR A   1      -7.306  50.280  12.668  0.00  0.00    +0.137 C 
BRANCH  10  11
ATOM     11  N   TYR A   1      -6.127  50.812  13.335  0.00  0.00    -0.239 NA
ATOM     12  H   TYR A   1      -5.397  50.153  13.672  0.00  0.00    +0.142 HD
ENDBRANCH  10  11
BRANCH  10  13
ATOM     13  C   TYR A   1      -7.737  49.018  13.372  0.00  0.00    +0.224 C 
ATOM     14  O   TYR A   1      -6.902  48.164  13.675  0.00  0.00    -0.287 OA
ENDBRANCH  10  13
ENDBRANCH   9  10
ENDBRANCH   1   9
TORSDOF 5
REMARK  Name = ../refined-set-2016/2cbz/2cbz_pocket.pdb
REMARK  122 active torsions:
REMARK  status: ('A' for Active; 'I' for Inactive)
REMARK    1  A    between atoms: _1  and  _3
REMARK    2  A    between atoms: _3  and  _4
REMARK    3  A    between atoms: _3  and  _6
REMARK    4  A    between atoms: _6  and  _7
REMARK    5  A    between atoms: _10  and  _12
REMARK    6  A    between atoms: _12  and  _13
REMARK    7  A    between atoms: _12  and  _15
REMARK    8  A    between atoms: _15  and  _16
REMARK    9  A    between atoms: _26  and  _28
REMARK   10  A    between atoms: _28  and  _29
REMARK   11  A    between atoms: _33  and  _34
REMARK   12  A    between atoms: _39  and  _41
REMARK   13  A    between atoms: _41  and  _42
REMARK   14  A    between atoms: _41  and  _44
REMARK   15  A    between atoms: _44  and  _45
REMARK   16  A    between atoms: _48  and  _50
REMARK   17  A    between atoms: _50  and  _51
REMARK   18  A    between atoms: _50  and  _53
REMARK   19  A    between atoms: _53  and  _54
REMARK   20  A    between atoms: _57  and  _59
REMARK   21  A    between atoms: _59  and  _60
REMARK   22  A    between atoms: _59  and  _62
REMARK   23  A    between atoms: _65  and  _67
REMARK   24  A    between atoms: _67  and  _68
REMARK   25  A    between atoms: _67  and  _70
REMARK   26  A    between atoms: _73  and  _75
REMARK   27  A    between atoms: _75  and  _76
REMARK   28  A    between atoms: _78  and  _80
REMARK   29  A    between atoms: _80  and  _81
REMARK   30  A    between atoms: _80  and  _83
REMARK   31  A    between atoms: _83  and  _84
REMARK   32  A    between atoms: _84  and  _85
REMARK   33  A    between atoms: _90  and  _92
REMARK   34  A    between atoms: _92  and  _93
REMARK   35  A    between atoms: _92  and  _95
REMARK   36  A    between atoms: _98  and  _100
REMARK   37  A    between atoms: _100  and  _101
REMARK   38  A    between atoms: _103  and  _105
REMARK   39  A    between atoms: _105  and  _106
REMARK   40  A    between atoms: _105  and  _108
REMARK   41  A    between atoms: _110  and  _112
REMARK   42  A    between atoms: _112  and  _113
REMARK   43  A    between atoms: _115  and  _117
REMARK   44  A    between atoms: _117  and  _118
REMARK   45  A    between atoms: _117  and  _120
REMARK   46  A    between atoms: _120  and  _121
REMARK   47  A    between atoms: _121  and  _122
REMARK   48  A    between atoms: _122  and  _123
REMARK   49  A    between atoms: _123  and  _124
REMARK   50  A    between atoms: _128  and  _130
REMARK   51  A    between atoms: _130  and  _131
REMARK   52  A    between atoms: _130  and  _133
REMARK   53  A    between atoms: _133  and  _134
REMARK   54  A    between atoms: _136  and  _138
REMARK   55  A    between atoms: _138  and  _139
REMARK   56  A    between atoms: _138  and  _141
REMARK   57  A    between atoms: _141  and  _142
REMARK   58  A    between atoms: _144  and  _146
REMARK   59  A    between atoms: _146  and  _147
REMARK   60  A    between atoms: _146  and  _149
REMARK   61  A    between atoms: _149  and  _150
REMARK   62  A    between atoms: _153  and  _155
REMARK   63  A    between atoms: _155  and  _156
REMARK   64  A    between atoms: _155  and  _158
REMARK   65  A    between atoms: _158  and  _159
REMARK   66  A    between atoms: _162  and  _164
REMARK   67  A    between atoms: _164  and  _165
REMARK   68  A    between atoms: _164  and  _167
REMARK   69  A    between atoms: _167  and  _168
REMARK   70  A    between atoms: _170  and  _172
REMARK   71  A    between atoms: _172  and  _173
REMARK   72  A    between atoms: _176  and  _178
REMARK   73  A    between atoms: _178  and  _179
REMARK   74  A    between atoms: _178  and  _181
REMARK   75  A    between atoms: _181  and  _182
REMARK   76  A    between atoms: _182  and  _183
REMARK   77  A    between atoms: _186  and  _188
REMARK   78  A    between atoms: _188  and  _189
REMARK   79  A    between atoms: _188  and  _191
REMARK   80  A    between atoms: _191  and  _192
REMARK   81  A    between atoms: _192  and  _193
REMARK   82  A    between atoms: _195  and  _197
REMARK   83  A    between atoms: _197  and  _198
REMARK   84  A    between atoms: _197  and  _200
REMARK   85  A    between atoms: _200  and  _201
REMARK   86  A    between atoms: _206  and  _207
REMARK   87  A    between atoms: _209  and  _211
REMARK   88  A    between atoms: _211  and  _212
REMARK   89  A    between atoms: _211  and  _214
REMARK   90  A    between atoms: _214  and  _215
REMARK   91  A    between atoms: _215  and  _216
REMARK   92  A    between atoms: _216  and  _217
REMARK   93  A    between atoms: _216  and  _218
REMARK   94  A    between atoms: _217  and  MG_286
REMARK   95  A    between atoms: _221  and  _223
REMARK   96  A    between atoms: _223  and  _224
REMARK   97  A    between atoms: _223  and  _226
REMARK   98  A    between atoms: _226  and  _227
REMARK   99  A    between atoms: _230  and  _232
REMARK  100  A    between atoms: _232  and  _233
REMARK  101  A    between atoms: _232  and  _235
REMARK  102  A    between atoms: _235  and  _236
REMARK  103  A    between atoms: _239  and  _241
REMARK  104  A    between atoms: _241  and  _242
REMARK  105  A    between atoms: _241  and  _244
REMARK  106  A    between atoms: _247  and  _249
REMARK  107  A    between atoms: _249  and  _250
REMARK  108  A    between atoms: _249  and  _252
REMARK  109  A    between atoms: _252  and  _253
REMARK  110  A    between atoms: _256  and  _258
REMARK  111  A    between atoms: _258  and  _259
REMARK  112  A    between atoms: _258  and  _261
REMARK  113  A    between atoms: _261  and  _262
REMARK  114  A    between atoms: _267  and  _269
REMARK  115  A    between atoms: _269  and  _270
REMARK  116  A    between atoms: _269  and  _272
REMARK  117  A    between atoms: _272  and  _273
REMARK  118  A    between atoms: _273  and  _274
REMARK  119  A    between atoms: _276  and  _278
REMARK  120  A    between atoms: _278  and  _279
REMARK  121  A    between atoms: _281  and  _283
REMARK  122  A    between atoms: _283  and  _284
REMARK                            x       y       z     vdW  Elec       q    Type
REMARK                         _______ _______ _______ _____ _____    ______ ____
ROOT
ATOM      1  C   UNK     1     -16.982  44.494   9.909  0.00  0.00    +0.000 C 
ENDROOT
BRANCH   1   2
ATOM      2  C   UNK     1     -15.534  44.785   9.543  0.00  0.00    +0.000 C 
BRANCH   2   3
ATOM      3  C   UNK     1     -14.571  44.557  10.704  0.00  0.00    +0.000 C 
BRANCH   3   4
ATOM      4  N   UNK     1     -13.254  45.107  10.406  0.00  0.00    +0.000 NA
ATOM      5  H   UNK     1     -13.031  45.436   9.445  0.00  0.00    +0.000 HD
ENDBRANCH   3   4
BRANCH   3   6
ATOM      6  C   UNK     1     -14.527  43.083  11.089  0.00  0.00    +0.000 C 
ATOM      7  O   UNK     1     -15.325  42.651  11.925  0.00  0.00    +0.000 OA
ENDBRANCH   3   6
ENDBRANCH   2   3
ENDBRANCH   1   2
BRANCH   1   8
ATOM      8  C   UNK     1     -17.972  45.037   8.902  0.00  0.00    +0.000 C 
BRANCH   8   9
ATOM      9  N   UNK     1     -19.255  44.824   9.180  0.00  0.00    +0.000 NA
ATOM     10  H   UNK     1     -19.522  44.313  10.046  0.00  0.00    +0.000 HD
ATOM     11  H   UNK     1     -19.992  45.168   8.532  0.00  0.00    +0.000 HD
ENDBRANCH   8   9
BRANCH   8  12
ATOM     12  O   UNK     1     -17.594  45.644   7.878  0.00  0.00    +0.000 OA
BRANCH  12  13
ATOM     13 MG   UNK     1     -18.564  47.185   6.798  0.00  0.00    +0.000 Mg
ATOM     14  O   UNK     1     -18.842  48.220   8.580  0.00  0.00    +0.000 OA
ENDBRANCH  12  13
ENDBRANCH   8  12
ENDBRANCH   1   8
TORSDOF 8
REMARK  Name = ../refined-set-2016/2cbz/2cbz_pocket.pdb
REMARK  122 active torsions:
REMARK  status: ('A' for Active; 'I' for Inactive)
REMARK    1  A    between atoms: _1  and  _3
REMARK    2  A    between atoms: _3  and  _4
REMARK    3  A    between atoms: _3  and  _6
REMARK    4  A    between atoms: _6  and  _7
REMARK    5  A    between atoms: _10  and  _12
REMARK    6  A    between atoms: _12  and  _13
REMARK    7  A    between atoms: _12  and  _15
REMARK    8  A    between atoms: _15  and  _16
REMARK    9  A    between atoms: _26  and  _28
REMARK   10  A    between atoms: _28  and  _29
REMARK   11  A    between atoms: _33  and  _34
REMARK   12  A    between atoms: _39  and  _41
REMARK   13  A    between atoms: _41  and  _42
REMARK   14  A    between atoms: _41  and  _44
REMARK   15  A    between atoms: _44  and  _45
REMARK   16  A    between atoms: _48  and  _50
REMARK   17  A    between atoms: _50  and  _51
REMARK   18  A    between atoms: _50  and  _53
REMARK   19  A    between atoms: _53  and  _54
REMARK   20  A    between atoms: _57  and  _59
REMARK   21  A    between atoms: _59  and  _60
REMARK   22  A    between atoms: _59  and  _62
REMARK   23  A    between atoms: _65  and  _67
REMARK   24  A    between atoms: _67  and  _68
REMARK   25  A    between atoms: _67  and  _70
REMARK   26  A    between atoms: _73  and  _75
REMARK   27  A    between atoms: _75  and  _76
REMARK   28  A    between atoms: _78  and  _80
REMARK   29  A    between atoms: _80  and  _81
REMARK   30  A    between atoms: _80  and  _83
REMARK   31  A    between atoms: _83  and  _84
REMARK   32  A    between atoms: _84  and  _85
REMARK   33  A    between atoms: _90  and  _92
REMARK   34  A    between atoms: _92  and  _93
REMARK   35  A    between atoms: _92  and  _95
REMARK   36  A    between atoms: _98  and  _100
REMARK   37  A    between atoms: _100  and  _101
REMARK   38  A    between atoms: _103  and  _105
REMARK   39  A    between atoms: _105  and  _106
REMARK   40  A    between atoms: _105  and  _108
REMARK   41  A    between atoms: _110  and  _112
REMARK   42  A    between atoms: _112  and  _113
REMARK   43  A    between atoms: _115  and  _117
REMARK   44  A    between atoms: _117  and  _118
REMARK   45  A    between atoms: _117  and  _120
REMARK   46  A    between atoms: _120  and  _121
REMARK   47  A    between atoms: _121  and  _122
REMARK   48  A    between atoms: _122  and  _123
REMARK   49  A    between atoms: _123  and  _124
REMARK   50  A    between atoms: _128  and  _130
REMARK   51  A    between atoms: _130  and  _131
REMARK   52  A    between atoms: _130  and  _133
REMARK   53  A    between atoms: _133  and  _134
REMARK   54  A    between atoms: _136  and  _138
REMARK   55  A    between atoms: _138  and  _139
REMARK   56  A    between atoms: _138  and  _141
REMARK   57  A    between atoms: _141  and  _142
REMARK   58  A    between atoms: _144  and  _146
REMARK   59  A    between atoms: _146  and  _147
REMARK   60  A    between atoms: _146  and  _149
REMARK   61  A    between atoms: _149  and  _150
REMARK   62  A    between atoms: _153  and  _155
REMARK   63  A    between atoms: _155  and  _156
REMARK   64  A    between atoms: _155  and  _158
REMARK   65  A    between atoms: _158  and  _159
REMARK   66  A    between atoms: _162  and  _164
REMARK   67  A    between atoms: _164  and  _165
REMARK   68  A    between atoms: _164  and  _167
REMARK   69  A    between atoms: _167  and  _168
REMARK   70  A    between atoms: _170  and  _172
REMARK   71  A    between atoms: _172  and  _173
REMARK   72  A    between atoms: _176  and  _178
REMARK   73  A    between atoms: _178  and  _179
REMARK   74  A    between atoms: _178  and  _181
REMARK   75  A    between atoms: _181  and  _182
REMARK   76  A    between atoms: _182  and  _183
REMARK   77  A    between atoms: _186  and  _188
REMARK   78  A    between atoms: _188  and  _189
REMARK   79  A    between atoms: _188  and  _191
REMARK   80  A    between atoms: _191  and  _192
REMARK   81  A    between atoms: _192  and  _193
REMARK   82  A    between atoms: _195  and  _197
REMARK   83  A    between atoms: _197  and  _198
REMARK   84  A    between atoms: _197  and  _200
REMARK   85  A    between atoms: _200  and  _201
REMARK   86  A    between atoms: _206  and  _207
REMARK   87  A    between atoms: _209  and  _211
REMARK   88  A    between atoms: _211  and  _212
REMARK   89  A    between atoms: _211  and  _214
REMARK   90  A    between atoms: _214  and  _215
REMARK   91  A    between atoms: _215  and  _216
REMARK   92  A    between atoms: _216  and  _217
REMARK   93  A    between atoms: _216  and  _218
REMARK   94  A    between atoms: _217  and  MG_286
REMARK   95  A    between atoms: _221  and  _223
REMARK   96  A    between atoms: _223  and  _224
REMARK   97  A    between atoms: _223  and  _226
REMARK   98  A    between atoms: _226  and  _227
REMARK   99  A    between atoms: _230  and  _232
REMARK  100  A    between atoms: _232  and  _233
REMARK  101  A    between atoms: _232  and  _235
REMARK  102  A    between atoms: _235  and  _236
REMARK  103  A    between atoms: _239  and  _241
REMARK  104  A    between atoms: _241  and  _242
REMARK  105  A    between atoms: _241  and  _244
REMARK  106  A    between atoms: _247  and  _249
REMARK  107  A    between atoms: _249  and  _250
REMARK  108  A    between atoms: _249  and  _252
REMARK  109  A    between atoms: _252  and  _253
REMARK  110  A    between atoms: _256  and  _258
REMARK  111  A    between atoms: _258  and  _259
REMARK  112  A    between atoms: _258  and  _261
REMARK  113  A    between atoms: _261  and  _262
REMARK  114  A    between atoms: _267  and  _269
REMARK  115  A    between atoms: _269  and  _270
REMARK  116  A    between atoms: _269  and  _272
REMARK  117  A    between atoms: _272  and  _273
REMARK  118  A    between atoms: _273  and  _274
REMARK  119  A    between atoms: _276  and  _278
REMARK  120  A    between atoms: _278  and  _279
REMARK  121  A    between atoms: _281  and  _283
REMARK  122  A    between atoms: _283  and  _284
REMARK                            x       y       z     vdW  Elec       q    Type
REMARK                         _______ _______ _______ _____ _____    ______ ____
ROOT
ATOM      1  C   ASP A   1     -15.864  48.095  12.912  0.00  0.00    +0.239 C 
ATOM      2  N   ASP A   2     -16.889  48.639  13.576  0.00  0.00    -0.298 N 
ATOM      3  H   ASP A   2     -16.963  49.675  13.622  0.00  0.00    +0.150 HD
ATOM      4  O   ASP A   1     -15.629  46.887  12.903  0.00  0.00    -0.274 OA
ENDROOT
BRANCH   1   5
ATOM      5  CA  ASP A   1     -14.940  49.077  12.187  0.00  0.00    +0.156 C 
BRANCH   5   6
ATOM      6  N   ASP A   1     -13.891  49.543  13.085  0.00  0.00    -0.238 NA
ATOM      7  H   ASP A   1     -13.042  48.963  13.241  0.00  0.00    +0.142 HD
ENDBRANCH   5   6
BRANCH   5   8
ATOM      8  CB  ASP A   1     -14.352  48.472  10.904  0.00  0.00    +0.140 C 
BRANCH   8   9
ATOM      9  CG  ASP A   1     -15.371  48.403   9.779  0.00  0.00    +0.367 C 
ATOM     10  OD2 ASP A   1     -16.580  48.522  10.093  0.00  0.00    -0.246 OA
ATOM     11  OD1 ASP A   1     -14.969  48.244   8.590  0.00  0.00    -0.246 OA
ENDBRANCH   8   9
ENDBRANCH   5   8
ENDBRANCH   1   5
BRANCH   2  12
ATOM     12  CA  ASP A   2     -17.915  47.826  14.243  0.00  0.00    +0.148 C 
BRANCH  12  13
ATOM     13  C   ASP A   2     -17.252  46.943  15.312  0.00  0.00    +0.227 C 
ATOM     14  O   ASP A   2     -17.362  45.706  15.294  0.00  0.00    -0.286 OA
ENDBRANCH  12  13
BRANCH  12  15
ATOM     15  CB  ASP A   2     -18.704  47.007  13.203  0.00  0.00    +0.142 C 
BRANCH  15  16
ATOM     16  CG  ASP A   2     -20.166  46.797  13.585  0.00  0.00    +0.367 C 
ATOM     17  OD2 ASP A   2     -20.602  47.279  14.658  0.00  0.00    -0.246 OA
ATOM     18  OD1 ASP A   2     -20.877  46.129  12.802  0.00  0.00    -0.246 OA
ENDBRANCH  15  16
ENDBRANCH  12  15
ENDBRANCH   2  12
TORSDOF 8
REMARK  Name = ../refined-set-2016/2cbz/2cbz_pocket.pdb
REMARK  122 active torsions:
REMARK  status: ('A' for Active; 'I' for Inactive)
REMARK    1  A    between atoms: _1  and  _3
REMARK    2  A    between atoms: _3  and  _4
REMARK    3  A    between atoms: _3  and  _6
REMARK    4  A    between atoms: _6  and  _7
REMARK    5  A    between atoms: _10  and  _12
REMARK    6  A    between atoms: _12  and  _13
REMARK    7  A    between atoms: _12  and  _15
REMARK    8  A    between atoms: _15  and  _16
REMARK    9  A    between atoms: _26  and  _28
REMARK   10  A    between atoms: _28  and  _29
REMARK   11  A    between atoms: _33  and  _34
REMARK   12  A    between atoms: _39  and  _41
REMARK   13  A    between atoms: _41  and  _42
REMARK   14  A    between atoms: _41  and  _44
REMARK   15  A    between atoms: _44  and  _45
REMARK   16  A    between atoms: _48  and  _50
REMARK   17  A    between atoms: _50  and  _51
REMARK   18  A    between atoms: _50  and  _53
REMARK   19  A    between atoms: _53  and  _54
REMARK   20  A    between atoms: _57  and  _59
REMARK   21  A    between atoms: _59  and  _60
REMARK   22  A    between atoms: _59  and  _62
REMARK   23  A    between atoms: _65  and  _67
REMARK   24  A    between atoms: _67  and  _68
REMARK   25  A    between atoms: _67  and  _70
REMARK   26  A    between atoms: _73  and  _75
REMARK   27  A    between atoms: _75  and  _76
REMARK   28  A    between atoms: _78  and  _80
REMARK   29  A    between atoms: _80  and  _81
REMARK   30  A    between atoms: _80  and  _83
REMARK   31  A    between atoms: _83  and  _84
REMARK   32  A    between atoms: _84  and  _85
REMARK   33  A    between atoms: _90  and  _92
REMARK   34  A    between atoms: _92  and  _93
REMARK   35  A    between atoms: _92  and  _95
REMARK   36  A    between atoms: _98  and  _100
REMARK   37  A    between atoms: _100  and  _101
REMARK   38  A    between atoms: _103  and  _105
REMARK   39  A    between atoms: _105  and  _106
REMARK   40  A    between atoms: _105  and  _108
REMARK   41  A    between atoms: _110  and  _112
REMARK   42  A    between atoms: _112  and  _113
REMARK   43  A    between atoms: _115  and  _117
REMARK   44  A    between atoms: _117  and  _118
REMARK   45  A    between atoms: _117  and  _120
REMARK   46  A    between atoms: _120  and  _121
REMARK   47  A    between atoms: _121  and  _122
REMARK   48  A    between atoms: _122  and  _123
REMARK   49  A    between atoms: _123  and  _124
REMARK   50  A    between atoms: _128  and  _130
REMARK   51  A    between atoms: _130  and  _131
REMARK   52  A    between atoms: _130  and  _133
REMARK   53  A    between atoms: _133  and  _134
REMARK   54  A    between atoms: _136  and  _138
REMARK   55  A    between atoms: _138  and  _139
REMARK   56  A    between atoms: _138  and  _141
REMARK   57  A    between atoms: _141  and  _142
REMARK   58  A    between atoms: _144  and  _146
REMARK   59  A    between atoms: _146  and  _147
REMARK   60  A    between atoms: _146  and  _149
REMARK   61  A    between atoms: _149  and  _150
REMARK   62  A    between atoms: _153  and  _155
REMARK   63  A    between atoms: _155  and  _156
REMARK   64  A    between atoms: _155  and  _158
REMARK   65  A    between atoms: _158  and  _159
REMARK   66  A    between atoms: _162  and  _164
REMARK   67  A    between atoms: _164  and  _165
REMARK   68  A    between atoms: _164  and  _167
REMARK   69  A    between atoms: _167  and  _168
REMARK   70  A    between atoms: _170  and  _172
REMARK   71  A    between atoms: _172  and  _173
REMARK   72  A    between atoms: _176  and  _178
REMARK   73  A    between atoms: _178  and  _179
REMARK   74  A    between atoms: _178  and  _181
REMARK   75  A    between atoms: _181  and  _182
REMARK   76  A    between atoms: _182  and  _183
REMARK   77  A    between atoms: _186  and  _188
REMARK   78  A    between atoms: _188  and  _189
REMARK   79  A    between atoms: _188  and  _191
REMARK   80  A    between atoms: _191  and  _192
REMARK   81  A    between atoms: _192  and  _193
REMARK   82  A    between atoms: _195  and  _197
REMARK   83  A    between atoms: _197  and  _198
REMARK   84  A    between atoms: _197  and  _200
REMARK   85  A    between atoms: _200  and  _201
REMARK   86  A    between atoms: _206  and  _207
REMARK   87  A    between atoms: _209  and  _211
REMARK   88  A    between atoms: _211  and  _212
REMARK   89  A    between atoms: _211  and  _214
REMARK   90  A    between atoms: _214  and  _215
REMARK   91  A    between atoms: _215  and  _216
REMARK   92  A    between atoms: _216  and  _217
REMARK   93  A    between atoms: _216  and  _218
REMARK   94  A    between atoms: _217  and  MG_286
REMARK   95  A    between atoms: _221  and  _223
REMARK   96  A    between atoms: _223  and  _224
REMARK   97  A    between atoms: _223  and  _226
REMARK   98  A    between atoms: _226  and  _227
REMARK   99  A    between atoms: _230  and  _232
REMARK  100  A    between atoms: _232  and  _233
REMARK  101  A    between atoms: _232  and  _235
REMARK  102  A    between atoms: _235  and  _236
REMARK  103  A    between atoms: _239  and  _241
REMARK  104  A    between atoms: _241  and  _242
REMARK  105  A    between atoms: _241  and  _244
REMARK  106  A    between atoms: _247  and  _249
REMARK  107  A    between atoms: _249  and  _250
REMARK  108  A    between atoms: _249  and  _252
REMARK  109  A    between atoms: _252  and  _253
REMARK  110  A    between atoms: _256  and  _258
REMARK  111  A    between atoms: _258  and  _259
REMARK  112  A    between atoms: _258  and  _261
REMARK  113  A    between atoms: _261  and  _262
REMARK  114  A    between atoms: _267  and  _269
REMARK  115  A    between atoms: _269  and  _270
REMARK  116  A    between atoms: _269  and  _272
REMARK  117  A    between atoms: _272  and  _273
REMARK  118  A    between atoms: _273  and  _274
REMARK  119  A    between atoms: _276  and  _278
REMARK  120  A    between atoms: _278  and  _279
REMARK  121  A    between atoms: _281  and  _283
REMARK  122  A    between atoms: _283  and  _284
REMARK                            x       y       z     vdW  Elec       q    Type
REMARK                         _______ _______ _______ _____ _____    ______ ____
ROOT
ATOM      1  CA  THR A   2     -21.180  50.630  14.331  0.00  0.00    +0.176 C 
ENDROOT
BRANCH   1   4
ATOM      2  C   VAL A   1     -19.098  51.586  13.564  0.00  0.00    +0.238 C 
ATOM      3  O   VAL A   1     -18.456  50.794  14.254  0.00  0.00    -0.274 OA
ATOM      4  N   THR A   2     -20.429  51.634  13.579  0.00  0.00    -0.295 N 
ATOM      5  H   THR A   2     -20.931  52.381  13.059  0.00  0.00    +0.150 HD
BRANCH   2   6
ATOM      6  CA  VAL A   1     -18.374  52.577  12.658  0.00  0.00    +0.145 C 
BRANCH   6   7
ATOM      7  CB  VAL A   1     -17.785  51.823  11.439  0.00  0.00    +0.025 C 
ATOM      8  CG2 VAL A   1     -18.834  50.943  10.782  0.00  0.00    +0.002 C 
ATOM      9  CG1 VAL A   1     -17.206  52.803  10.439  0.00  0.00    +0.002 C 
ENDBRANCH   6   7
BRANCH   6  10
ATOM     10  N   VAL A   1     -17.324  53.195  13.467  0.00  0.00    -0.238 NA
ATOM     11  H   VAL A   1     -16.327  52.949  13.301  0.00  0.00    +0.142 HD
ENDBRANCH   6  10
ENDBRANCH   2   6
ENDBRANCH   1   4
BRANCH   1  12
ATOM     12  C   THR A   2     -22.557  50.390  13.737  0.00  0.00    +0.243 C 
ATOM     13  N   HIS A   3     -23.027  49.150  13.868  0.00  0.00    -0.298 N 
ATOM     14  H   HIS A   3     -22.415  48.412  14.271  0.00  0.00    +0.150 HD
ATOM     15  O   THR A   2     -23.178  51.312  13.180  0.00  0.00    -0.273 OA
BRANCH  13  16
ATOM     16  CA  HIS A   3     -24.391  48.806  13.455  0.00  0.00    +0.143 C 
BRANCH  16  17
ATOM     17  C   HIS A   3     -25.389  48.924  14.604  0.00  0.00    +0.227 C 
ATOM     18  O   HIS A   3     -26.589  48.737  14.399  0.00  0.00    -0.286 OA
ENDBRANCH  16  17
BRANCH  16  19
ATOM     19  CB  HIS A   3     -24.460  47.395  12.854  0.00  0.00    +0.075 C 
BRANCH  19  20
ATOM     20  CG  HIS A   3     -24.335  46.296  13.865  0.00  0.00    +0.082 A 
ATOM     21  CD2 HIS A   3     -25.196  45.843  14.808  0.00  0.00    +0.115 A 
ATOM     22  NE2 HIS A   3     -24.574  44.805  15.463  0.00  0.00    -0.221 NA
ATOM     23  CE1 HIS A   3     -23.377  44.621  14.932  0.00  0.00    +0.199 A 
ATOM     24  ND1 HIS A   3     -23.208  45.508  13.967  0.00  0.00    -0.227 NA
ENDBRANCH  19  20
ENDBRANCH  16  19
ENDBRANCH  13  16
ENDBRANCH   1  12
BRANCH   1  25
ATOM     25  CB  THR A   2     -21.305  50.996  15.834  0.00  0.00    +0.137 C 
ATOM     26  CG2 THR A   2     -21.975  52.356  16.013  0.00  0.00    +0.034 C 
BRANCH  25  27
ATOM     27  OG1 THR A   2     -22.079  49.986  16.502  0.00  0.00    -0.382 OA
ATOM     28  HG1 THR A   2     -22.161  50.216  17.461  0.00  0.00    +0.210 HD
ENDBRANCH  25  27
ENDBRANCH   1  25
TORSDOF 11
REMARK  Name = ../refined-set-2016/2cbz/2cbz_pocket.pdb
REMARK  122 active torsions:
REMARK  status: ('A' for Active; 'I' for Inactive)
REMARK    1  A    between atoms: _1  and  _3
REMARK    2  A    between atoms: _3  and  _4
REMARK    3  A    between atoms: _3  and  _6
REMARK    4  A    between atoms: _6  and  _7
REMARK    5  A    between atoms: _10  and  _12
REMARK    6  A    between atoms: _12  and  _13
REMARK    7  A    between atoms: _12  and  _15
REMARK    8  A    between atoms: _15  and  _16
REMARK    9  A    between atoms: _26  and  _28
REMARK   10  A    between atoms: _28  and  _29
REMARK   11  A    between atoms: _33  and  _34
REMARK   12  A    between atoms: _39  and  _41
REMARK   13  A    between atoms: _41  and  _42
REMARK   14  A    between atoms: _41  and  _44
REMARK   15  A    between atoms: _44  and  _45
REMARK   16  A    between atoms: _48  and  _50
REMARK   17  A    between atoms: _50  and  _51
REMARK   18  A    between atoms: _50  and  _53
REMARK   19  A    between atoms: _53  and  _54
REMARK   20  A    between atoms: _57  and  _59
REMARK   21  A    between atoms: _59  and  _60
REMARK   22  A    between atoms: _59  and  _62
REMARK   23  A    between atoms: _65  and  _67
REMARK   24  A    between atoms: _67  and  _68
REMARK   25  A    between atoms: _67  and  _70
REMARK   26  A    between atoms: _73  and  _75
REMARK   27  A    between atoms: _75  and  _76
REMARK   28  A    between atoms: _78  and  _80
REMARK   29  A    between atoms: _80  and  _81
REMARK   30  A    between atoms: _80  and  _83
REMARK   31  A    between atoms: _83  and  _84
REMARK   32  A    between atoms: _84  and  _85
REMARK   33  A    between atoms: _90  and  _92
REMARK   34  A    between atoms: _92  and  _93
REMARK   35  A    between atoms: _92  and  _95
REMARK   36  A    between atoms: _98  and  _100
REMARK   37  A    between atoms: _100  and  _101
REMARK   38  A    between atoms: _103  and  _105
REMARK   39  A    between atoms: _105  and  _106
REMARK   40  A    between atoms: _105  and  _108
REMARK   41  A    between atoms: _110  and  _112
REMARK   42  A    between atoms: _112  and  _113
REMARK   43  A    between atoms: _115  and  _117
REMARK   44  A    between atoms: _117  and  _118
REMARK   45  A    between atoms: _117  and  _120
REMARK   46  A    between atoms: _120  and  _121
REMARK   47  A    between atoms: _121  and  _122
REMARK   48  A    between atoms: _122  and  _123
REMARK   49  A    between atoms: _123  and  _124
REMARK   50  A    between atoms: _128  and  _130
REMARK   51  A    between atoms: _130  and  _131
REMARK   52  A    between atoms: _130  and  _133
REMARK   53  A    between atoms: _133  and  _134
REMARK   54  A    between atoms: _136  and  _138
REMARK   55  A    between atoms: _138  and  _139
REMARK   56  A    between atoms: _138  and  _141
REMARK   57  A    between atoms: _141  and  _142
REMARK   58  A    between atoms: _144  and  _146
REMARK   59  A    between atoms: _146  and  _147
REMARK   60  A    between atoms: _146  and  _149
REMARK   61  A    between atoms: _149  and  _150
REMARK   62  A    between atoms: _153  and  _155
REMARK   63  A    between atoms: _155  and  _156
REMARK   64  A    between atoms: _155  and  _158
REMARK   65  A    between atoms: _158  and  _159
REMARK   66  A    between atoms: _162  and  _164
REMARK   67  A    between atoms: _164  and  _165
REMARK   68  A    between atoms: _164  and  _167
REMARK   69  A    between atoms: _167  and  _168
REMARK   70  A    between atoms: _170  and  _172
REMARK   71  A    between atoms: _172  and  _173
REMARK   72  A    between atoms: _176  and  _178
REMARK   73  A    between atoms: _178  and  _179
REMARK   74  A    between atoms: _178  and  _181
REMARK   75  A    between atoms: _181  and  _182
REMARK   76  A    between atoms: _182  and  _183
REMARK   77  A    between atoms: _186  and  _188
REMARK   78  A    between atoms: _188  and  _189
REMARK   79  A    between atoms: _188  and  _191
REMARK   80  A    between atoms: _191  and  _192
REMARK   81  A    between atoms: _192  and  _193
REMARK   82  A    between atoms: _195  and  _197
REMARK   83  A    between atoms: _197  and  _198
REMARK   84  A    between atoms: _197  and  _200
REMARK   85  A    between atoms: _200  and  _201
REMARK   86  A    between atoms: _206  and  _207
REMARK   87  A    between atoms: _209  and  _211
REMARK   88  A    between atoms: _211  and  _212
REMARK   89  A    between atoms: _211  and  _214
REMARK   90  A    between atoms: _214  and  _215
REMARK   91  A    between atoms: _215  and  _216
REMARK   92  A    between atoms: _216  and  _217
REMARK   93  A    between atoms: _216  and  _218
REMARK   94  A    between atoms: _217  and  MG_286
REMARK   95  A    between atoms: _221  and  _223
REMARK   96  A    between atoms: _223  and  _224
REMARK   97  A    between atoms: _223  and  _226
REMARK   98  A    between atoms: _226  and  _227
REMARK   99  A    between atoms: _230  and  _232
REMARK  100  A    between atoms: _232  and  _233
REMARK  101  A    between atoms: _232  and  _235
REMARK  102  A    between atoms: _235  and  _236
REMARK  103  A    between atoms: _239  and  _241
REMARK  104  A    between atoms: _241  and  _242
REMARK  105  A    between atoms: _241  and  _244
REMARK  106  A    between atoms: _247  and  _249
REMARK  107  A    between atoms: _249  and  _250
REMARK  108  A    between atoms: _249  and  _252
REMARK  109  A    between atoms: _252  and  _253
REMARK  110  A    between atoms: _256  and  _258
REMARK  111  A    between atoms: _258  and  _259
REMARK  112  A    between atoms: _258  and  _261
REMARK  113  A    between atoms: _261  and  _262
REMARK  114  A    between atoms: _267  and  _269
REMARK  115  A    between atoms: _269  and  _270
REMARK  116  A    between atoms: _269  and  _272
REMARK  117  A    between atoms: _272  and  _273
REMARK  118  A    between atoms: _273  and  _274
REMARK  119  A    between atoms: _276  and  _278
REMARK  120  A    between atoms: _278  and  _279
REMARK  121  A    between atoms: _281  and  _283
REMARK  122  A    between atoms: _283  and  _284
REMARK                            x       y       z     vdW  Elec       q    Type
REMARK                         _______ _______ _______ _____ _____    ______ ____
ROOT
ATOM      1  CA  MET A   1     -24.258  57.406   5.263  0.00  0.00    +0.134 C 
ENDROOT
BRANCH   1   2
ATOM      2  N   MET A   1     -24.510  57.642   6.681  0.00  0.00    -0.239 NA
ATOM      3  H   MET A   1     -24.507  56.836   7.338  0.00  0.00    +0.142 HD
ENDBRANCH   1   2
BRANCH   1   4
ATOM      4  C   MET A   1     -25.397  56.678   4.571  0.00  0.00    +0.224 C 
ATOM      5  O   MET A   1     -26.152  55.938   5.200  0.00  0.00    -0.287 OA
ENDBRANCH   1   4
BRANCH   1   6
ATOM      6  CB  MET A   1     -22.983  56.586   5.093  0.00  0.00    +0.037 C 
BRANCH   6   7
ATOM      7  CG  MET A   1     -21.719  57.312   5.518  0.00  0.00    +0.059 C 
BRANCH   7   8
ATOM      8  SD  MET A   1     -20.240  56.314   5.254  0.00  0.00    -0.139 S 
ATOM      9  CE  MET A   1     -20.166  56.334   3.447  0.00  0.00    +0.069 C 
ENDBRANCH   7   8
ENDBRANCH   6   7
ENDBRANCH   1   6
TORSDOF 5
REMARK  Name = ../refined-set-2016/2cbz/2cbz_pocket.pdb
REMARK  122 active torsions:
REMARK  status: ('A' for Active; 'I' for Inactive)
REMARK    1  A    between atoms: _1  and  _3
REMARK    2  A    between atoms: _3  and  _4
REMARK    3  A    between atoms: _3  and  _6
REMARK    4  A    between atoms: _6  and  _7
REMARK    5  A    between atoms: _10  and  _12
REMARK    6  A    between atoms: _12  and  _13
REMARK    7  A    between atoms: _12  and  _15
REMARK    8  A    between atoms: _15  and  _16
REMARK    9  A    between atoms: _26  and  _28
REMARK   10  A    between atoms: _28  and  _29
REMARK   11  A    between atoms: _33  and  _34
REMARK   12  A    between atoms: _39  and  _41
REMARK   13  A    between atoms: _41  and  _42
REMARK   14  A    between atoms: _41  and  _44
REMARK   15  A    between atoms: _44  and  _45
REMARK   16  A    between atoms: _48  and  _50
REMARK   17  A    between atoms: _50  and  _51
REMARK   18  A    between atoms: _50  and  _53
REMARK   19  A    between atoms: _53  and  _54
REMARK   20  A    between atoms: _57  and  _59
REMARK   21  A    between atoms: _59  and  _60
REMARK   22  A    between atoms: _59  and  _62
REMARK   23  A    between atoms: _65  and  _67
REMARK   24  A    between atoms: _67  and  _68
REMARK   25  A    between atoms: _67  and  _70
REMARK   26  A    between atoms: _73  and  _75
REMARK   27  A    between atoms: _75  and  _76
REMARK   28  A    between atoms: _78  and  _80
REMARK   29  A    between atoms: _80  and  _81
REMARK   30  A    between atoms: _80  and  _83
REMARK   31  A    between atoms: _83  and  _84
REMARK   32  A    between atoms: _84  and  _85
REMARK   33  A    between atoms: _90  and  _92
REMARK   34  A    between atoms: _92  and  _93
REMARK   35  A    between atoms: _92  and  _95
REMARK   36  A    between atoms: _98  and  _100
REMARK   37  A    between atoms: _100  and  _101
REMARK   38  A    between atoms: _103  and  _105
REMARK   39  A    between atoms: _105  and  _106
REMARK   40  A    between atoms: _105  and  _108
REMARK   41  A    between atoms: _110  and  _112
REMARK   42  A    between atoms: _112  and  _113
REMARK   43  A    between atoms: _115  and  _117
REMARK   44  A    between atoms: _117  and  _118
REMARK   45  A    between atoms: _117  and  _120
REMARK   46  A    between atoms: _120  and  _121
REMARK   47  A    between atoms: _121  and  _122
REMARK   48  A    between atoms: _122  and  _123
REMARK   49  A    between atoms: _123  and  _124
REMARK   50  A    between atoms: _128  and  _130
REMARK   51  A    between atoms: _130  and  _131
REMARK   52  A    between atoms: _130  and  _133
REMARK   53  A    between atoms: _133  and  _134
REMARK   54  A    between atoms: _136  and  _138
REMARK   55  A    between atoms: _138  and  _139
REMARK   56  A    between atoms: _138  and  _141
REMARK   57  A    between atoms: _141  and  _142
REMARK   58  A    between atoms: _144  and  _146
REMARK   59  A    between atoms: _146  and  _147
REMARK   60  A    between atoms: _146  and  _149
REMARK   61  A    between atoms: _149  and  _150
REMARK   62  A    between atoms: _153  and  _155
REMARK   63  A    between atoms: _155  and  _156
REMARK   64  A    between atoms: _155  and  _158
REMARK   65  A    between atoms: _158  and  _159
REMARK   66  A    between atoms: _162  and  _164
REMARK   67  A    between atoms: _164  and  _165
REMARK   68  A    between atoms: _164  and  _167
REMARK   69  A    between atoms: _167  and  _168
REMARK   70  A    between atoms: _170  and  _172
REMARK   71  A    between atoms: _172  and  _173
REMARK   72  A    between atoms: _176  and  _178
REMARK   73  A    between atoms: _178  and  _179
REMARK   74  A    between atoms: _178  and  _181
REMARK   75  A    between atoms: _181  and  _182
REMARK   76  A    between atoms: _182  and  _183
REMARK   77  A    between atoms: _186  and  _188
REMARK   78  A    between atoms: _188  and  _189
REMARK   79  A    between atoms: _188  and  _191
REMARK   80  A    between atoms: _191  and  _192
REMARK   81  A    between atoms: _192  and  _193
REMARK   82  A    between atoms: _195  and  _197
REMARK   83  A    between atoms: _197  and  _198
REMARK   84  A    between atoms: _197  and  _200
REMARK   85  A    between atoms: _200  and  _201
REMARK   86  A    between atoms: _206  and  _207
REMARK   87  A    between atoms: _209  and  _211
REMARK   88  A    between atoms: _211  and  _212
REMARK   89  A    between atoms: _211  and  _214
REMARK   90  A    between atoms: _214  and  _215
REMARK   91  A    between atoms: _215  and  _216
REMARK   92  A    between atoms: _216  and  _217
REMARK   93  A    between atoms: _216  and  _218
REMARK   94  A    between atoms: _217  and  MG_286
REMARK   95  A    between atoms: _221  and  _223
REMARK   96  A    between atoms: _223  and  _224
REMARK   97  A    between atoms: _223  and  _226
REMARK   98  A    between atoms: _226  and  _227
REMARK   99  A    between atoms: _230  and  _232
REMARK  100  A    between atoms: _232  and  _233
REMARK  101  A    between atoms: _232  and  _235
REMARK  102  A    between atoms: _235  and  _236
REMARK  103  A    between atoms: _239  and  _241
REMARK  104  A    between atoms: _241  and  _242
REMARK  105  A    between atoms: _241  and  _244
REMARK  106  A    between atoms: _247  and  _249
REMARK  107  A    between atoms: _249  and  _250
REMARK  108  A    between atoms: _249  and  _252
REMARK  109  A    between atoms: _252  and  _253
REMARK  110  A    between atoms: _256  and  _258
REMARK  111  A    between atoms: _258  and  _259
REMARK  112  A    between atoms: _258  and  _261
REMARK  113  A    between atoms: _261  and  _262
REMARK  114  A    between atoms: _267  and  _269
REMARK  115  A    between atoms: _269  and  _270
REMARK  116  A    between atoms: _269  and  _272
REMARK  117  A    between atoms: _272  and  _273
REMARK  118  A    between atoms: _273  and  _274
REMARK  119  A    between atoms: _276  and  _278
REMARK  120  A    between atoms: _278  and  _279
REMARK  121  A    between atoms: _281  and  _283
REMARK  122  A    between atoms: _283  and  _284
REMARK                            x       y       z     vdW  Elec       q    Type
REMARK                         _______ _______ _______ _____ _____    ______ ____
ROOT
ATOM      1  C   GLY A   1     -23.980  55.613  -1.304  0.00  0.00    +0.240 C 
ATOM      2  N   GLY A   2     -23.045  55.446  -0.373  0.00  0.00    -0.297 N 
ATOM      3  H   GLY A   2     -23.283  54.964   0.517  0.00  0.00    +0.150 HD
ATOM      4  O   GLY A   1     -23.782  56.254  -2.341  0.00  0.00    -0.274 OA
ENDROOT
BRANCH   1   5
ATOM      5  CA  GLY A   1     -25.327  54.962  -1.037  0.00  0.00    +0.169 C 
BRANCH   5   6
ATOM      6  N   GLY A   1     -25.752  55.024   0.359  0.00  0.00    -0.236 NA
ATOM      7  H   GLY A   1     -25.980  54.142   0.861  0.00  0.00    +0.142 HD
ENDBRANCH   5   6
ENDBRANCH   1   5
BRANCH   2   8
ATOM      8  CA  GLY A   2     -21.688  55.934  -0.591  0.00  0.00    +0.163 C 
BRANCH   8   9
ATOM      9  C   GLY A   2     -21.546  57.433  -0.429  0.00  0.00    +0.229 C 
ATOM     10  O   GLY A   2     -20.509  58.008  -0.784  0.00  0.00    -0.286 OA
ENDBRANCH   8   9
ENDBRANCH   2   8
TORSDOF 4
REMARK  Name = ../refined-set-2016/2cbz/2cbz_pocket.pdb
REMARK  122 active torsions:
REMARK  status: ('A' for Active; 'I' for Inactive)
REMARK    1  A    between atoms: _1  and  _3
REMARK    2  A    between atoms: _3  and  _4
REMARK    3  A    between atoms: _3  and  _6
REMARK    4  A    between atoms: _6  and  _7
REMARK    5  A    between atoms: _10  and  _12
REMARK    6  A    between atoms: _12  and  _13
REMARK    7  A    between atoms: _12  and  _15
REMARK    8  A    between atoms: _15  and  _16
REMARK    9  A    between atoms: _26  and  _28
REMARK   10  A    between atoms: _28  and  _29
REMARK   11  A    between atoms: _33  and  _34
REMARK   12  A    between atoms: _39  and  _41
REMARK   13  A    between atoms: _41  and  _42
REMARK   14  A    between atoms: _41  and  _44
REMARK   15  A    between atoms: _44  and  _45
REMARK   16  A    between atoms: _48  and  _50
REMARK   17  A    between atoms: _50  and  _51
REMARK   18  A    between atoms: _50  and  _53
REMARK   19  A    between atoms: _53  and  _54
REMARK   20  A    between atoms: _57  and  _59
REMARK   21  A    between atoms: _59  and  _60
REMARK   22  A    between atoms: _59  and  _62
REMARK   23  A    between atoms: _65  and  _67
REMARK   24  A    between atoms: _67  and  _68
REMARK   25  A    between atoms: _67  and  _70
REMARK   26  A    between atoms: _73  and  _75
REMARK   27  A    between atoms: _75  and  _76
REMARK   28  A    between atoms: _78  and  _80
REMARK   29  A    between atoms: _80  and  _81
REMARK   30  A    between atoms: _80  and  _83
REMARK   31  A    between atoms: _83  and  _84
REMARK   32  A    between atoms: _84  and  _85
REMARK   33  A    between atoms: _90  and  _92
REMARK   34  A    between atoms: _92  and  _93
REMARK   35  A    between atoms: _92  and  _95
REMARK   36  A    between atoms: _98  and  _100
REMARK   37  A    between atoms: _100  and  _101
REMARK   38  A    between atoms: _103  and  _105
REMARK   39  A    between atoms: _105  and  _106
REMARK   40  A    between atoms: _105  and  _108
REMARK   41  A    between atoms: _110  and  _112
REMARK   42  A    between atoms: _112  and  _113
REMARK   43  A    between atoms: _115  and  _117
REMARK   44  A    between atoms: _117  and  _118
REMARK   45  A    between atoms: _117  and  _120
REMARK   46  A    between atoms: _120  and  _121
REMARK   47  A    between atoms: _121  and  _122
REMARK   48  A    between atoms: _122  and  _123
REMARK   49  A    between atoms: _123  and  _124
REMARK   50  A    between atoms: _128  and  _130
REMARK   51  A    between atoms: _130  and  _131
REMARK   52  A    between atoms: _130  and  _133
REMARK   53  A    between atoms: _133  and  _134
REMARK   54  A    between atoms: _136  and  _138
REMARK   55  A    between atoms: _138  and  _139
REMARK   56  A    between atoms: _138  and  _141
REMARK   57  A    between atoms: _141  and  _142
REMARK   58  A    between atoms: _144  and  _146
REMARK   59  A    between atoms: _146  and  _147
REMARK   60  A    between atoms: _146  and  _149
REMARK   61  A    between atoms: _149  and  _150
REMARK   62  A    between atoms: _153  and  _155
REMARK   63  A    between atoms: _155  and  _156
REMARK   64  A    between atoms: _155  and  _158
REMARK   65  A    between atoms: _158  and  _159
REMARK   66  A    between atoms: _162  and  _164
REMARK   67  A    between atoms: _164  and  _165
REMARK   68  A    between atoms: _164  and  _167
REMARK   69  A    between atoms: _167  and  _168
REMARK   70  A    between atoms: _170  and  _172
REMARK   71  A    between atoms: _172  and  _173
REMARK   72  A    between atoms: _176  and  _178
REMARK   73  A    between atoms: _178  and  _179
REMARK   74  A    between atoms: _178  and  _181
REMARK   75  A    between atoms: _181  and  _182
REMARK   76  A    between atoms: _182  and  _183
REMARK   77  A    between atoms: _186  and  _188
REMARK   78  A    between atoms: _188  and  _189
REMARK   79  A    between atoms: _188  and  _191
REMARK   80  A    between atoms: _191  and  _192
REMARK   81  A    between atoms: _192  and  _193
REMARK   82  A    between atoms: _195  and  _197
REMARK   83  A    between atoms: _197  and  _198
REMARK   84  A    between atoms: _197  and  _200
REMARK   85  A    between atoms: _200  and  _201
REMARK   86  A    between atoms: _206  and  _207
REMARK   87  A    between atoms: _209  and  _211
REMARK   88  A    between atoms: _211  and  _212
REMARK   89  A    between atoms: _211  and  _214
REMARK   90  A    between atoms: _214  and  _215
REMARK   91  A    between atoms: _215  and  _216
REMARK   92  A    between atoms: _216  and  _217
REMARK   93  A    between atoms: _216  and  _218
REMARK   94  A    between atoms: _217  and  MG_286
REMARK   95  A    between atoms: _221  and  _223
REMARK   96  A    between atoms: _223  and  _224
REMARK   97  A    between atoms: _223  and  _226
REMARK   98  A    between atoms: _226  and  _227
REMARK   99  A    between atoms: _230  and  _232
REMARK  100  A    between atoms: _232  and  _233
REMARK  101  A    between atoms: _232  and  _235
REMARK  102  A    between atoms: _235  and  _236
REMARK  103  A    between atoms: _239  and  _241
REMARK  104  A    between atoms: _241  and  _242
REMARK  105  A    between atoms: _241  and  _244
REMARK  106  A    between atoms: _247  and  _249
REMARK  107  A    between atoms: _249  and  _250
REMARK  108  A    between atoms: _249  and  _252
REMARK  109  A    between atoms: _252  and  _253
REMARK  110  A    between atoms: _256  and  _258
REMARK  111  A    between atoms: _258  and  _259
REMARK  112  A    between atoms: _258  and  _261
REMARK  113  A    between atoms: _261  and  _262
REMARK  114  A    between atoms: _267  and  _269
REMARK  115  A    between atoms: _269  and  _270
REMARK  116  A    between atoms: _269  and  _272
REMARK  117  A    between atoms: _272  and  _273
REMARK  118  A    between atoms: _273  and  _274
REMARK  119  A    between atoms: _276  and  _278
REMARK  120  A    between atoms: _278  and  _279
REMARK  121  A    between atoms: _281  and  _283
REMARK  122  A    between atoms: _283  and  _284
REMARK                            x       y       z     vdW  Elec       q    Type
REMARK                         _______ _______ _______ _____ _____    ______ ____
ROOT
ATOM      1  O   HOH     1     -15.951  42.350   6.491  0.00  0.00    +0.000 OA
ENDROOT
TORSDOF 0
REMARK  Name = ../refined-set-2016/2cbz/2cbz_pocket.pdb
REMARK  122 active torsions:
REMARK  status: ('A' for Active; 'I' for Inactive)
REMARK    1  A    between atoms: _1  and  _3
REMARK    2  A    between atoms: _3  and  _4
REMARK    3  A    between atoms: _3  and  _6
REMARK    4  A    between atoms: _6  and  _7
REMARK    5  A    between atoms: _10  and  _12
REMARK    6  A    between atoms: _12  and  _13
REMARK    7  A    between atoms: _12  and  _15
REMARK    8  A    between atoms: _15  and  _16
REMARK    9  A    between atoms: _26  and  _28
REMARK   10  A    between atoms: _28  and  _29
REMARK   11  A    between atoms: _33  and  _34
REMARK   12  A    between atoms: _39  and  _41
REMARK   13  A    between atoms: _41  and  _42
REMARK   14  A    between atoms: _41  and  _44
REMARK   15  A    between atoms: _44  and  _45
REMARK   16  A    between atoms: _48  and  _50
REMARK   17  A    between atoms: _50  and  _51
REMARK   18  A    between atoms: _50  and  _53
REMARK   19  A    between atoms: _53  and  _54
REMARK   20  A    between atoms: _57  and  _59
REMARK   21  A    between atoms: _59  and  _60
REMARK   22  A    between atoms: _59  and  _62
REMARK   23  A    between atoms: _65  and  _67
REMARK   24  A    between atoms: _67  and  _68
REMARK   25  A    between atoms: _67  and  _70
REMARK   26  A    between atoms: _73  and  _75
REMARK   27  A    between atoms: _75  and  _76
REMARK   28  A    between atoms: _78  and  _80
REMARK   29  A    between atoms: _80  and  _81
REMARK   30  A    between atoms: _80  and  _83
REMARK   31  A    between atoms: _83  and  _84
REMARK   32  A    between atoms: _84  and  _85
REMARK   33  A    between atoms: _90  and  _92
REMARK   34  A    between atoms: _92  and  _93
REMARK   35  A    between atoms: _92  and  _95
REMARK   36  A    between atoms: _98  and  _100
REMARK   37  A    between atoms: _100  and  _101
REMARK   38  A    between atoms: _103  and  _105
REMARK   39  A    between atoms: _105  and  _106
REMARK   40  A    between atoms: _105  and  _108
REMARK   41  A    between atoms: _110  and  _112
REMARK   42  A    between atoms: _112  and  _113
REMARK   43  A    between atoms: _115  and  _117
REMARK   44  A    between atoms: _117  and  _118
REMARK   45  A    between atoms: _117  and  _120
REMARK   46  A    between atoms: _120  and  _121
REMARK   47  A    between atoms: _121  and  _122
REMARK   48  A    between atoms: _122  and  _123
REMARK   49  A    between atoms: _123  and  _124
REMARK   50  A    between atoms: _128  and  _130
REMARK   51  A    between atoms: _130  and  _131
REMARK   52  A    between atoms: _130  and  _133
REMARK   53  A    between atoms: _133  and  _134
REMARK   54  A    between atoms: _136  and  _138
REMARK   55  A    between atoms: _138  and  _139
REMARK   56  A    between atoms: _138  and  _141
REMARK   57  A    between atoms: _141  and  _142
REMARK   58  A    between atoms: _144  and  _146
REMARK   59  A    between atoms: _146  and  _147
REMARK   60  A    between atoms: _146  and  _149
REMARK   61  A    between atoms: _149  and  _150
REMARK   62  A    between atoms: _153  and  _155
REMARK   63  A    between atoms: _155  and  _156
REMARK   64  A    between atoms: _155  and  _158
REMARK   65  A    between atoms: _158  and  _159
REMARK   66  A    between atoms: _162  and  _164
REMARK   67  A    between atoms: _164  and  _165
REMARK   68  A    between atoms: _164  and  _167
REMARK   69  A    between atoms: _167  and  _168
REMARK   70  A    between atoms: _170  and  _172
REMARK   71  A    between atoms: _172  and  _173
REMARK   72  A    between atoms: _176  and  _178
REMARK   73  A    between atoms: _178  and  _179
REMARK   74  A    between atoms: _178  and  _181
REMARK   75  A    between atoms: _181  and  _182
REMARK   76  A    between atoms: _182  and  _183
REMARK   77  A    between atoms: _186  and  _188
REMARK   78  A    between atoms: _188  and  _189
REMARK   79  A    between atoms: _188  and  _191
REMARK   80  A    between atoms: _191  and  _192
REMARK   81  A    between atoms: _192  and  _193
REMARK   82  A    between atoms: _195  and  _197
REMARK   83  A    between atoms: _197  and  _198
REMARK   84  A    between atoms: _197  and  _200
REMARK   85  A    between atoms: _200  and  _201
REMARK   86  A    between atoms: _206  and  _207
REMARK   87  A    between atoms: _209  and  _211
REMARK   88  A    between atoms: _211  and  _212
REMARK   89  A    between atoms: _211  and  _214
REMARK   90  A    between atoms: _214  and  _215
REMARK   91  A    between atoms: _215  and  _216
REMARK   92  A    between atoms: _216  and  _217
REMARK   93  A    between atoms: _216  and  _218
REMARK   94  A    between atoms: _217  and  MG_286
REMARK   95  A    between atoms: _221  and  _223
REMARK   96  A    between atoms: _223  and  _224
REMARK   97  A    between atoms: _223  and  _226
REMARK   98  A    between atoms: _226  and  _227
REMARK   99  A    between atoms: _230  and  _232
REMARK  100  A    between atoms: _232  and  _233
REMARK  101  A    between atoms: _232  and  _235
REMARK  102  A    between atoms: _235  and  _236
REMARK  103  A    between atoms: _239  and  _241
REMARK  104  A    between atoms: _241  and  _242
REMARK  105  A    between atoms: _241  and  _244
REMARK  106  A    between atoms: _247  and  _249
REMARK  107  A    between atoms: _249  and  _250
REMARK  108  A    between atoms: _249  and  _252
REMARK  109  A    between atoms: _252  and  _253
REMARK  110  A    between atoms: _256  and  _258
REMARK  111  A    between atoms: _258  and  _259
REMARK  112  A    between atoms: _258  and  _261
REMARK  113  A    between atoms: _261  and  _262
REMARK  114  A    between atoms: _267  and  _269
REMARK  115  A    between atoms: _269  and  _270
REMARK  116  A    between atoms: _269  and  _272
REMARK  117  A    between atoms: _272  and  _273
REMARK  118  A    between atoms: _273  and  _274
REMARK  119  A    between atoms: _276  and  _278
REMARK  120  A    between atoms: _278  and  _279
REMARK  121  A    between atoms: _281  and  _283
REMARK  122  A    between atoms: _283  and  _284
REMARK                            x       y       z     vdW  Elec       q    Type
REMARK                         _______ _______ _______ _____ _____    ______ ____
ROOT
ATOM      1  O   HOH     1     -24.023  44.579  10.156  0.00  0.00    +0.000 OA
ENDROOT
TORSDOF 0
REMARK  Name = ../refined-set-2016/2cbz/2cbz_pocket.pdb
REMARK  122 active torsions:
REMARK  status: ('A' for Active; 'I' for Inactive)
REMARK    1  A    between atoms: _1  and  _3
REMARK    2  A    between atoms: _3  and  _4
REMARK    3  A    between atoms: _3  and  _6
REMARK    4  A    between atoms: _6  and  _7
REMARK    5  A    between atoms: _10  and  _12
REMARK    6  A    between atoms: _12  and  _13
REMARK    7  A    between atoms: _12  and  _15
REMARK    8  A    between atoms: _15  and  _16
REMARK    9  A    between atoms: _26  and  _28
REMARK   10  A    between atoms: _28  and  _29
REMARK   11  A    between atoms: _33  and  _34
REMARK   12  A    between atoms: _39  and  _41
REMARK   13  A    between atoms: _41  and  _42
REMARK   14  A    between atoms: _41  and  _44
REMARK   15  A    between atoms: _44  and  _45
REMARK   16  A    between atoms: _48  and  _50
REMARK   17  A    between atoms: _50  and  _51
REMARK   18  A    between atoms: _50  and  _53
REMARK   19  A    between atoms: _53  and  _54
REMARK   20  A    between atoms: _57  and  _59
REMARK   21  A    between atoms: _59  and  _60
REMARK   22  A    between atoms: _59  and  _62
REMARK   23  A    between atoms: _65  and  _67
REMARK   24  A    between atoms: _67  and  _68
REMARK   25  A    between atoms: _67  and  _70
REMARK   26  A    between atoms: _73  and  _75
REMARK   27  A    between atoms: _75  and  _76
REMARK   28  A    between atoms: _78  and  _80
REMARK   29  A    between atoms: _80  and  _81
REMARK   30  A    between atoms: _80  and  _83
REMARK   31  A    between atoms: _83  and  _84
REMARK   32  A    between atoms: _84  and  _85
REMARK   33  A    between atoms: _90  and  _92
REMARK   34  A    between atoms: _92  and  _93
REMARK   35  A    between atoms: _92  and  _95
REMARK   36  A    between atoms: _98  and  _100
REMARK   37  A    between atoms: _100  and  _101
REMARK   38  A    between atoms: _103  and  _105
REMARK   39  A    between atoms: _105  and  _106
REMARK   40  A    between atoms: _105  and  _108
REMARK   41  A    between atoms: _110  and  _112
REMARK   42  A    between atoms: _112  and  _113
REMARK   43  A    between atoms: _115  and  _117
REMARK   44  A    between atoms: _117  and  _118
REMARK   45  A    between atoms: _117  and  _120
REMARK   46  A    between atoms: _120  and  _121
REMARK   47  A    between atoms: _121  and  _122
REMARK   48  A    between atoms: _122  and  _123
REMARK   49  A    between atoms: _123  and  _124
REMARK   50  A    between atoms: _128  and  _130
REMARK   51  A    between atoms: _130  and  _131
REMARK   52  A    between atoms: _130  and  _133
REMARK   53  A    between atoms: _133  and  _134
REMARK   54  A    between atoms: _136  and  _138
REMARK   55  A    between atoms: _138  and  _139
REMARK   56  A    between atoms: _138  and  _141
REMARK   57  A    between atoms: _141  and  _142
REMARK   58  A    between atoms: _144  and  _146
REMARK   59  A    between atoms: _146  and  _147
REMARK   60  A    between atoms: _146  and  _149
REMARK   61  A    between atoms: _149  and  _150
REMARK   62  A    between atoms: _153  and  _155
REMARK   63  A    between atoms: _155  and  _156
REMARK   64  A    between atoms: _155  and  _158
REMARK   65  A    between atoms: _158  and  _159
REMARK   66  A    between atoms: _162  and  _164
REMARK   67  A    between atoms: _164  and  _165
REMARK   68  A    between atoms: _164  and  _167
REMARK   69  A    between atoms: _167  and  _168
REMARK   70  A    between atoms: _170  and  _172
REMARK   71  A    between atoms: _172  and  _173
REMARK   72  A    between atoms: _176  and  _178
REMARK   73  A    between atoms: _178  and  _179
REMARK   74  A    between atoms: _178  and  _181
REMARK   75  A    between atoms: _181  and  _182
REMARK   76  A    between atoms: _182  and  _183
REMARK   77  A    between atoms: _186  and  _188
REMARK   78  A    between atoms: _188  and  _189
REMARK   79  A    between atoms: _188  and  _191
REMARK   80  A    between atoms: _191  and  _192
REMARK   81  A    between atoms: _192  and  _193
REMARK   82  A    between atoms: _195  and  _197
REMARK   83  A    between atoms: _197  and  _198
REMARK   84  A    between atoms: _197  and  _200
REMARK   85  A    between atoms: _200  and  _201
REMARK   86  A    between atoms: _206  and  _207
REMARK   87  A    between atoms: _209  and  _211
REMARK   88  A    between atoms: _211  and  _212
REMARK   89  A    between atoms: _211  and  _214
REMARK   90  A    between atoms: _214  and  _215
REMARK   91  A    between atoms: _215  and  _216
REMARK   92  A    between atoms: _216  and  _217
REMARK   93  A    between atoms: _216  and  _218
REMARK   94  A    between atoms: _217  and  MG_286
REMARK   95  A    between atoms: _221  and  _223
REMARK   96  A    between atoms: _223  and  _224
REMARK   97  A    between atoms: _223  and  _226
REMARK   98  A    between atoms: _226  and  _227
REMARK   99  A    between atoms: _230  and  _232
REMARK  100  A    between atoms: _232  and  _233
REMARK  101  A    between atoms: _232  and  _235
REMARK  102  A    between atoms: _235  and  _236
REMARK  103  A    between atoms: _239  and  _241
REMARK  104  A    between atoms: _241  and  _242
REMARK  105  A    between atoms: _241  and  _244
REMARK  106  A    between atoms: _247  and  _249
REMARK  107  A    between atoms: _249  and  _250
REMARK  108  A    between atoms: _249  and  _252
REMARK  109  A    between atoms: _252  and  _253
REMARK  110  A    between atoms: _256  and  _258
REMARK  111  A    between atoms: _258  and  _259
REMARK  112  A    between atoms: _258  and  _261
REMARK  113  A    between atoms: _261  and  _262
REMARK  114  A    between atoms: _267  and  _269
REMARK  115  A    between atoms: _269  and  _270
REMARK  116  A    between atoms: _269  and  _272
REMARK  117  A    between atoms: _272  and  _273
REMARK  118  A    between atoms: _273  and  _274
REMARK  119  A    between atoms: _276  and  _278
REMARK  120  A    between atoms: _278  and  _279
REMARK  121  A    between atoms: _281  and  _283
REMARK  122  A    between atoms: _283  and  _284
REMARK                            x       y       z     vdW  Elec       q    Type
REMARK                         _______ _______ _______ _____ _____    ______ ____
ROOT
ATOM      1  O   HOH     1     -16.123  51.138  -8.644  0.00  0.00    +0.000 OA
ENDROOT
TORSDOF 0
REMARK  Name = ../refined-set-2016/2cbz/2cbz_pocket.pdb
REMARK  122 active torsions:
REMARK  status: ('A' for Active; 'I' for Inactive)
REMARK    1  A    between atoms: _1  and  _3
REMARK    2  A    between atoms: _3  and  _4
REMARK    3  A    between atoms: _3  and  _6
REMARK    4  A    between atoms: _6  and  _7
REMARK    5  A    between atoms: _10  and  _12
REMARK    6  A    between atoms: _12  and  _13
REMARK    7  A    between atoms: _12  and  _15
REMARK    8  A    between atoms: _15  and  _16
REMARK    9  A    between atoms: _26  and  _28
REMARK   10  A    between atoms: _28  and  _29
REMARK   11  A    between atoms: _33  and  _34
REMARK   12  A    between atoms: _39  and  _41
REMARK   13  A    between atoms: _41  and  _42
REMARK   14  A    between atoms: _41  and  _44
REMARK   15  A    between atoms: _44  and  _45
REMARK   16  A    between atoms: _48  and  _50
REMARK   17  A    between atoms: _50  and  _51
REMARK   18  A    between atoms: _50  and  _53
REMARK   19  A    between atoms: _53  and  _54
REMARK   20  A    between atoms: _57  and  _59
REMARK   21  A    between atoms: _59  and  _60
REMARK   22  A    between atoms: _59  and  _62
REMARK   23  A    between atoms: _65  and  _67
REMARK   24  A    between atoms: _67  and  _68
REMARK   25  A    between atoms: _67  and  _70
REMARK   26  A    between atoms: _73  and  _75
REMARK   27  A    between atoms: _75  and  _76
REMARK   28  A    between atoms: _78  and  _80
REMARK   29  A    between atoms: _80  and  _81
REMARK   30  A    between atoms: _80  and  _83
REMARK   31  A    between atoms: _83  and  _84
REMARK   32  A    between atoms: _84  and  _85
REMARK   33  A    between atoms: _90  and  _92
REMARK   34  A    between atoms: _92  and  _93
REMARK   35  A    between atoms: _92  and  _95
REMARK   36  A    between atoms: _98  and  _100
REMARK   37  A    between atoms: _100  and  _101
REMARK   38  A    between atoms: _103  and  _105
REMARK   39  A    between atoms: _105  and  _106
REMARK   40  A    between atoms: _105  and  _108
REMARK   41  A    between atoms: _110  and  _112
REMARK   42  A    between atoms: _112  and  _113
REMARK   43  A    between atoms: _115  and  _117
REMARK   44  A    between atoms: _117  and  _118
REMARK   45  A    between atoms: _117  and  _120
REMARK   46  A    between atoms: _120  and  _121
REMARK   47  A    between atoms: _121  and  _122
REMARK   48  A    between atoms: _122  and  _123
REMARK   49  A    between atoms: _123  and  _124
REMARK   50  A    between atoms: _128  and  _130
REMARK   51  A    between atoms: _130  and  _131
REMARK   52  A    between atoms: _130  and  _133
REMARK   53  A    between atoms: _133  and  _134
REMARK   54  A    between atoms: _136  and  _138
REMARK   55  A    between atoms: _138  and  _139
REMARK   56  A    between atoms: _138  and  _141
REMARK   57  A    between atoms: _141  and  _142
REMARK   58  A    between atoms: _144  and  _146
REMARK   59  A    between atoms: _146  and  _147
REMARK   60  A    between atoms: _146  and  _149
REMARK   61  A    between atoms: _149  and  _150
REMARK   62  A    between atoms: _153  and  _155
REMARK   63  A    between atoms: _155  and  _156
REMARK   64  A    between atoms: _155  and  _158
REMARK   65  A    between atoms: _158  and  _159
REMARK   66  A    between atoms: _162  and  _164
REMARK   67  A    between atoms: _164  and  _165
REMARK   68  A    between atoms: _164  and  _167
REMARK   69  A    between atoms: _167  and  _168
REMARK   70  A    between atoms: _170  and  _172
REMARK   71  A    between atoms: _172  and  _173
REMARK   72  A    between atoms: _176  and  _178
REMARK   73  A    between atoms: _178  and  _179
REMARK   74  A    between atoms: _178  and  _181
REMARK   75  A    between atoms: _181  and  _182
REMARK   76  A    between atoms: _182  and  _183
REMARK   77  A    between atoms: _186  and  _188
REMARK   78  A    between atoms: _188  and  _189
REMARK   79  A    between atoms: _188  and  _191
REMARK   80  A    between atoms: _191  and  _192
REMARK   81  A    between atoms: _192  and  _193
REMARK   82  A    between atoms: _195  and  _197
REMARK   83  A    between atoms: _197  and  _198
REMARK   84  A    between atoms: _197  and  _200
REMARK   85  A    between atoms: _200  and  _201
REMARK   86  A    between atoms: _206  and  _207
REMARK   87  A    between atoms: _209  and  _211
REMARK   88  A    between atoms: _211  and  _212
REMARK   89  A    between atoms: _211  and  _214
REMARK   90  A    between atoms: _214  and  _215
REMARK   91  A    between atoms: _215  and  _216
REMARK   92  A    between atoms: _216  and  _217
REMARK   93  A    between atoms: _216  and  _218
REMARK   94  A    between atoms: _217  and  MG_286
REMARK   95  A    between atoms: _221  and  _223
REMARK   96  A    between atoms: _223  and  _224
REMARK   97  A    between atoms: _223  and  _226
REMARK   98  A    between atoms: _226  and  _227
REMARK   99  A    between atoms: _230  and  _232
REMARK  100  A    between atoms: _232  and  _233
REMARK  101  A    between atoms: _232  and  _235
REMARK  102  A    between atoms: _235  and  _236
REMARK  103  A    between atoms: _239  and  _241
REMARK  104  A    between atoms: _241  and  _242
REMARK  105  A    between atoms: _241  and  _244
REMARK  106  A    between atoms: _247  and  _249
REMARK  107  A    between atoms: _249  and  _250
REMARK  108  A    between atoms: _249  and  _252
REMARK  109  A    between atoms: _252  and  _253
REMARK  110  A    between atoms: _256  and  _258
REMARK  111  A    between atoms: _258  and  _259
REMARK  112  A    between atoms: _258  and  _261
REMARK  113  A    between atoms: _261  and  _262
REMARK  114  A    between atoms: _267  and  _269
REMARK  115  A    between atoms: _269  and  _270
REMARK  116  A    between atoms: _269  and  _272
REMARK  117  A    between atoms: _272  and  _273
REMARK  118  A    between atoms: _273  and  _274
REMARK  119  A    between atoms: _276  and  _278
REMARK  120  A    between atoms: _278  and  _279
REMARK  121  A    between atoms: _281  and  _283
REMARK  122  A    between atoms: _283  and  _284
REMARK                            x       y       z     vdW  Elec       q    Type
REMARK                         _______ _______ _______ _____ _____    ______ ____
ROOT
ATOM      1  O   HOH     1     -20.922  52.374  -7.124  0.00  0.00    +0.000 OA
ENDROOT
TORSDOF 0
REMARK  Name = ../refined-set-2016/2cbz/2cbz_pocket.pdb
REMARK  122 active torsions:
REMARK  status: ('A' for Active; 'I' for Inactive)
REMARK    1  A    between atoms: _1  and  _3
REMARK    2  A    between atoms: _3  and  _4
REMARK    3  A    between atoms: _3  and  _6
REMARK    4  A    between atoms: _6  and  _7
REMARK    5  A    between atoms: _10  and  _12
REMARK    6  A    between atoms: _12  and  _13
REMARK    7  A    between atoms: _12  and  _15
REMARK    8  A    between atoms: _15  and  _16
REMARK    9  A    between atoms: _26  and  _28
REMARK   10  A    between atoms: _28  and  _29
REMARK   11  A    between atoms: _33  and  _34
REMARK   12  A    between atoms: _39  and  _41
REMARK   13  A    between atoms: _41  and  _42
REMARK   14  A    between atoms: _41  and  _44
REMARK   15  A    between atoms: _44  and  _45
REMARK   16  A    between atoms: _48  and  _50
REMARK   17  A    between atoms: _50  and  _51
REMARK   18  A    between atoms: _50  and  _53
REMARK   19  A    between atoms: _53  and  _54
REMARK   20  A    between atoms: _57  and  _59
REMARK   21  A    between atoms: _59  and  _60
REMARK   22  A    between atoms: _59  and  _62
REMARK   23  A    between atoms: _65  and  _67
REMARK   24  A    between atoms: _67  and  _68
REMARK   25  A    between atoms: _67  and  _70
REMARK   26  A    between atoms: _73  and  _75
REMARK   27  A    between atoms: _75  and  _76
REMARK   28  A    between atoms: _78  and  _80
REMARK   29  A    between atoms: _80  and  _81
REMARK   30  A    between atoms: _80  and  _83
REMARK   31  A    between atoms: _83  and  _84
REMARK   32  A    between atoms: _84  and  _85
REMARK   33  A    between atoms: _90  and  _92
REMARK   34  A    between atoms: _92  and  _93
REMARK   35  A    between atoms: _92  and  _95
REMARK   36  A    between atoms: _98  and  _100
REMARK   37  A    between atoms: _100  and  _101
REMARK   38  A    between atoms: _103  and  _105
REMARK   39  A    between atoms: _105  and  _106
REMARK   40  A    between atoms: _105  and  _108
REMARK   41  A    between atoms: _110  and  _112
REMARK   42  A    between atoms: _112  and  _113
REMARK   43  A    between atoms: _115  and  _117
REMARK   44  A    between atoms: _117  and  _118
REMARK   45  A    between atoms: _117  and  _120
REMARK   46  A    between atoms: _120  and  _121
REMARK   47  A    between atoms: _121  and  _122
REMARK   48  A    between atoms: _122  and  _123
REMARK   49  A    between atoms: _123  and  _124
REMARK   50  A    between atoms: _128  and  _130
REMARK   51  A    between atoms: _130  and  _131
REMARK   52  A    between atoms: _130  and  _133
REMARK   53  A    between atoms: _133  and  _134
REMARK   54  A    between atoms: _136  and  _138
REMARK   55  A    between atoms: _138  and  _139
REMARK   56  A    between atoms: _138  and  _141
REMARK   57  A    between atoms: _141  and  _142
REMARK   58  A    between atoms: _144  and  _146
REMARK   59  A    between atoms: _146  and  _147
REMARK   60  A    between atoms: _146  and  _149
REMARK   61  A    between atoms: _149  and  _150
REMARK   62  A    between atoms: _153  and  _155
REMARK   63  A    between atoms: _155  and  _156
REMARK   64  A    between atoms: _155  and  _158
REMARK   65  A    between atoms: _158  and  _159
REMARK   66  A    between atoms: _162  and  _164
REMARK   67  A    between atoms: _164  and  _165
REMARK   68  A    between atoms: _164  and  _167
REMARK   69  A    between atoms: _167  and  _168
REMARK   70  A    between atoms: _170  and  _172
REMARK   71  A    between atoms: _172  and  _173
REMARK   72  A    between atoms: _176  and  _178
REMARK   73  A    between atoms: _178  and  _179
REMARK   74  A    between atoms: _178  and  _181
REMARK   75  A    between atoms: _181  and  _182
REMARK   76  A    between atoms: _182  and  _183
REMARK   77  A    between atoms: _186  and  _188
REMARK   78  A    between atoms: _188  and  _189
REMARK   79  A    between atoms: _188  and  _191
REMARK   80  A    between atoms: _191  and  _192
REMARK   81  A    between atoms: _192  and  _193
REMARK   82  A    between atoms: _195  and  _197
REMARK   83  A    between atoms: _197  and  _198
REMARK   84  A    between atoms: _197  and  _200
REMARK   85  A    between atoms: _200  and  _201
REMARK   86  A    between atoms: _206  and  _207
REMARK   87  A    between atoms: _209  and  _211
REMARK   88  A    between atoms: _211  and  _212
REMARK   89  A    between atoms: _211  and  _214
REMARK   90  A    between atoms: _214  and  _215
REMARK   91  A    between atoms: _215  and  _216
REMARK   92  A    between atoms: _216  and  _217
REMARK   93  A    between atoms: _216  and  _218
REMARK   94  A    between atoms: _217  and  MG_286
REMARK   95  A    between atoms: _221  and  _223
REMARK   96  A    between atoms: _223  and  _224
REMARK   97  A    between atoms: _223  and  _226
REMARK   98  A    between atoms: _226  and  _227
REMARK   99  A    between atoms: _230  and  _232
REMARK  100  A    between atoms: _232  and  _233
REMARK  101  A    between atoms: _232  and  _235
REMARK  102  A    between atoms: _235  and  _236
REMARK  103  A    between atoms: _239  and  _241
REMARK  104  A    between atoms: _241  and  _242
REMARK  105  A    between atoms: _241  and  _244
REMARK  106  A    between atoms: _247  and  _249
REMARK  107  A    between atoms: _249  and  _250
REMARK  108  A    between atoms: _249  and  _252
REMARK  109  A    between atoms: _252  and  _253
REMARK  110  A    between atoms: _256  and  _258
REMARK  111  A    between atoms: _258  and  _259
REMARK  112  A    between atoms: _258  and  _261
REMARK  113  A    between atoms: _261  and  _262
REMARK  114  A    between atoms: _267  and  _269
REMARK  115  A    between atoms: _269  and  _270
REMARK  116  A    between atoms: _269  and  _272
REMARK  117  A    between atoms: _272  and  _273
REMARK  118  A    between atoms: _273  and  _274
REMARK  119  A    between atoms: _276  and  _278
REMARK  120  A    between atoms: _278  and  _279
REMARK  121  A    between atoms: _281  and  _283
REMARK  122  A    between atoms: _283  and  _284
REMARK                            x       y       z     vdW  Elec       q    Type
REMARK                         _______ _______ _______ _____ _____    ______ ____
ROOT
ATOM      1  O   HOH     1     -20.949  52.374  -1.956  0.00  0.00    +0.000 OA
ENDROOT
TORSDOF 0
REMARK  Name = ../refined-set-2016/2cbz/2cbz_pocket.pdb
REMARK  122 active torsions:
REMARK  status: ('A' for Active; 'I' for Inactive)
REMARK    1  A    between atoms: _1  and  _3
REMARK    2  A    between atoms: _3  and  _4
REMARK    3  A    between atoms: _3  and  _6
REMARK    4  A    between atoms: _6  and  _7
REMARK    5  A    between atoms: _10  and  _12
REMARK    6  A    between atoms: _12  and  _13
REMARK    7  A    between atoms: _12  and  _15
REMARK    8  A    between atoms: _15  and  _16
REMARK    9  A    between atoms: _26  and  _28
REMARK   10  A    between atoms: _28  and  _29
REMARK   11  A    between atoms: _33  and  _34
REMARK   12  A    between atoms: _39  and  _41
REMARK   13  A    between atoms: _41  and  _42
REMARK   14  A    between atoms: _41  and  _44
REMARK   15  A    between atoms: _44  and  _45
REMARK   16  A    between atoms: _48  and  _50
REMARK   17  A    between atoms: _50  and  _51
REMARK   18  A    between atoms: _50  and  _53
REMARK   19  A    between atoms: _53  and  _54
REMARK   20  A    between atoms: _57  and  _59
REMARK   21  A    between atoms: _59  and  _60
REMARK   22  A    between atoms: _59  and  _62
REMARK   23  A    between atoms: _65  and  _67
REMARK   24  A    between atoms: _67  and  _68
REMARK   25  A    between atoms: _67  and  _70
REMARK   26  A    between atoms: _73  and  _75
REMARK   27  A    between atoms: _75  and  _76
REMARK   28  A    between atoms: _78  and  _80
REMARK   29  A    between atoms: _80  and  _81
REMARK   30  A    between atoms: _80  and  _83
REMARK   31  A    between atoms: _83  and  _84
REMARK   32  A    between atoms: _84  and  _85
REMARK   33  A    between atoms: _90  and  _92
REMARK   34  A    between atoms: _92  and  _93
REMARK   35  A    between atoms: _92  and  _95
REMARK   36  A    between atoms: _98  and  _100
REMARK   37  A    between atoms: _100  and  _101
REMARK   38  A    between atoms: _103  and  _105
REMARK   39  A    between atoms: _105  and  _106
REMARK   40  A    between atoms: _105  and  _108
REMARK   41  A    between atoms: _110  and  _112
REMARK   42  A    between atoms: _112  and  _113
REMARK   43  A    between atoms: _115  and  _117
REMARK   44  A    between atoms: _117  and  _118
REMARK   45  A    between atoms: _117  and  _120
REMARK   46  A    between atoms: _120  and  _121
REMARK   47  A    between atoms: _121  and  _122
REMARK   48  A    between atoms: _122  and  _123
REMARK   49  A    between atoms: _123  and  _124
REMARK   50  A    between atoms: _128  and  _130
REMARK   51  A    between atoms: _130  and  _131
REMARK   52  A    between atoms: _130  and  _133
REMARK   53  A    between atoms: _133  and  _134
REMARK   54  A    between atoms: _136  and  _138
REMARK   55  A    between atoms: _138  and  _139
REMARK   56  A    between atoms: _138  and  _141
REMARK   57  A    between atoms: _141  and  _142
REMARK   58  A    between atoms: _144  and  _146
REMARK   59  A    between atoms: _146  and  _147
REMARK   60  A    between atoms: _146  and  _149
REMARK   61  A    between atoms: _149  and  _150
REMARK   62  A    between atoms: _153  and  _155
REMARK   63  A    between atoms: _155  and  _156
REMARK   64  A    between atoms: _155  and  _158
REMARK   65  A    between atoms: _158  and  _159
REMARK   66  A    between atoms: _162  and  _164
REMARK   67  A    between atoms: _164  and  _165
REMARK   68  A    between atoms: _164  and  _167
REMARK   69  A    between atoms: _167  and  _168
REMARK   70  A    between atoms: _170  and  _172
REMARK   71  A    between atoms: _172  and  _173
REMARK   72  A    between atoms: _176  and  _178
REMARK   73  A    between atoms: _178  and  _179
REMARK   74  A    between atoms: _178  and  _181
REMARK   75  A    between atoms: _181  and  _182
REMARK   76  A    between atoms: _182  and  _183
REMARK   77  A    between atoms: _186  and  _188
REMARK   78  A    between atoms: _188  and  _189
REMARK   79  A    between atoms: _188  and  _191
REMARK   80  A    between atoms: _191  and  _192
REMARK   81  A    between atoms: _192  and  _193
REMARK   82  A    between atoms: _195  and  _197
REMARK   83  A    between atoms: _197  and  _198
REMARK   84  A    between atoms: _197  and  _200
REMARK   85  A    between atoms: _200  and  _201
REMARK   86  A    between atoms: _206  and  _207
REMARK   87  A    between atoms: _209  and  _211
REMARK   88  A    between atoms: _211  and  _212
REMARK   89  A    between atoms: _211  and  _214
REMARK   90  A    between atoms: _214  and  _215
REMARK   91  A    between atoms: _215  and  _216
REMARK   92  A    between atoms: _216  and  _217
REMARK   93  A    between atoms: _216  and  _218
REMARK   94  A    between atoms: _217  and  MG_286
REMARK   95  A    between atoms: _221  and  _223
REMARK   96  A    between atoms: _223  and  _224
REMARK   97  A    between atoms: _223  and  _226
REMARK   98  A    between atoms: _226  and  _227
REMARK   99  A    between atoms: _230  and  _232
REMARK  100  A    between atoms: _232  and  _233
REMARK  101  A    between atoms: _232  and  _235
REMARK  102  A    between atoms: _235  and  _236
REMARK  103  A    between atoms: _239  and  _241
REMARK  104  A    between atoms: _241  and  _242
REMARK  105  A    between atoms: _241  and  _244
REMARK  106  A    between atoms: _247  and  _249
REMARK  107  A    between atoms: _249  and  _250
REMARK  108  A    between atoms: _249  and  _252
REMARK  109  A    between atoms: _252  and  _253
REMARK  110  A    between atoms: _256  and  _258
REMARK  111  A    between atoms: _258  and  _259
REMARK  112  A    between atoms: _258  and  _261
REMARK  113  A    between atoms: _261  and  _262
REMARK  114  A    between atoms: _267  and  _269
REMARK  115  A    between atoms: _269  and  _270
REMARK  116  A    between atoms: _269  and  _272
REMARK  117  A    between atoms: _272  and  _273
REMARK  118  A    between atoms: _273  and  _274
REMARK  119  A    between atoms: _276  and  _278
REMARK  120  A    between atoms: _278  and  _279
REMARK  121  A    between atoms: _281  and  _283
REMARK  122  A    between atoms: _283  and  _284
REMARK                            x       y       z     vdW  Elec       q    Type
REMARK                         _______ _______ _______ _____ _____    ______ ____
ROOT
ATOM      1  O   HOH     1     -15.565  51.600  -6.270  0.00  0.00    +0.000 OA
ENDROOT
TORSDOF 0
REMARK  Name = ../refined-set-2016/2cbz/2cbz_pocket.pdb
REMARK  122 active torsions:
REMARK  status: ('A' for Active; 'I' for Inactive)
REMARK    1  A    between atoms: _1  and  _3
REMARK    2  A    between atoms: _3  and  _4
REMARK    3  A    between atoms: _3  and  _6
REMARK    4  A    between atoms: _6  and  _7
REMARK    5  A    between atoms: _10  and  _12
REMARK    6  A    between atoms: _12  and  _13
REMARK    7  A    between atoms: _12  and  _15
REMARK    8  A    between atoms: _15  and  _16
REMARK    9  A    between atoms: _26  and  _28
REMARK   10  A    between atoms: _28  and  _29
REMARK   11  A    between atoms: _33  and  _34
REMARK   12  A    between atoms: _39  and  _41
REMARK   13  A    between atoms: _41  and  _42
REMARK   14  A    between atoms: _41  and  _44
REMARK   15  A    between atoms: _44  and  _45
REMARK   16  A    between atoms: _48  and  _50
REMARK   17  A    between atoms: _50  and  _51
REMARK   18  A    between atoms: _50  and  _53
REMARK   19  A    between atoms: _53  and  _54
REMARK   20  A    between atoms: _57  and  _59
REMARK   21  A    between atoms: _59  and  _60
REMARK   22  A    between atoms: _59  and  _62
REMARK   23  A    between atoms: _65  and  _67
REMARK   24  A    between atoms: _67  and  _68
REMARK   25  A    between atoms: _67  and  _70
REMARK   26  A    between atoms: _73  and  _75
REMARK   27  A    between atoms: _75  and  _76
REMARK   28  A    between atoms: _78  and  _80
REMARK   29  A    between atoms: _80  and  _81
REMARK   30  A    between atoms: _80  and  _83
REMARK   31  A    between atoms: _83  and  _84
REMARK   32  A    between atoms: _84  and  _85
REMARK   33  A    between atoms: _90  and  _92
REMARK   34  A    between atoms: _92  and  _93
REMARK   35  A    between atoms: _92  and  _95
REMARK   36  A    between atoms: _98  and  _100
REMARK   37  A    between atoms: _100  and  _101
REMARK   38  A    between atoms: _103  and  _105
REMARK   39  A    between atoms: _105  and  _106
REMARK   40  A    between atoms: _105  and  _108
REMARK   41  A    between atoms: _110  and  _112
REMARK   42  A    between atoms: _112  and  _113
REMARK   43  A    between atoms: _115  and  _117
REMARK   44  A    between atoms: _117  and  _118
REMARK   45  A    between atoms: _117  and  _120
REMARK   46  A    between atoms: _120  and  _121
REMARK   47  A    between atoms: _121  and  _122
REMARK   48  A    between atoms: _122  and  _123
REMARK   49  A    between atoms: _123  and  _124
REMARK   50  A    between atoms: _128  and  _130
REMARK   51  A    between atoms: _130  and  _131
REMARK   52  A    between atoms: _130  and  _133
REMARK   53  A    between atoms: _133  and  _134
REMARK   54  A    between atoms: _136  and  _138
REMARK   55  A    between atoms: _138  and  _139
REMARK   56  A    between atoms: _138  and  _141
REMARK   57  A    between atoms: _141  and  _142
REMARK   58  A    between atoms: _144  and  _146
REMARK   59  A    between atoms: _146  and  _147
REMARK   60  A    between atoms: _146  and  _149
REMARK   61  A    between atoms: _149  and  _150
REMARK   62  A    between atoms: _153  and  _155
REMARK   63  A    between atoms: _155  and  _156
REMARK   64  A    between atoms: _155  and  _158
REMARK   65  A    between atoms: _158  and  _159
REMARK   66  A    between atoms: _162  and  _164
REMARK   67  A    between atoms: _164  and  _165
REMARK   68  A    between atoms: _164  and  _167
REMARK   69  A    between atoms: _167  and  _168
REMARK   70  A    between atoms: _170  and  _172
REMARK   71  A    between atoms: _172  and  _173
REMARK   72  A    between atoms: _176  and  _178
REMARK   73  A    between atoms: _178  and  _179
REMARK   74  A    between atoms: _178  and  _181
REMARK   75  A    between atoms: _181  and  _182
REMARK   76  A    between atoms: _182  and  _183
REMARK   77  A    between atoms: _186  and  _188
REMARK   78  A    between atoms: _188  and  _189
REMARK   79  A    between atoms: _188  and  _191
REMARK   80  A    between atoms: _191  and  _192
REMARK   81  A    between atoms: _192  and  _193
REMARK   82  A    between atoms: _195  and  _197
REMARK   83  A    between atoms: _197  and  _198
REMARK   84  A    between atoms: _197  and  _200
REMARK   85  A    between atoms: _200  and  _201
REMARK   86  A    between atoms: _206  and  _207
REMARK   87  A    between atoms: _209  and  _211
REMARK   88  A    between atoms: _211  and  _212
REMARK   89  A    between atoms: _211  and  _214
REMARK   90  A    between atoms: _214  and  _215
REMARK   91  A    between atoms: _215  and  _216
REMARK   92  A    between atoms: _216  and  _217
REMARK   93  A    between atoms: _216  and  _218
REMARK   94  A    between atoms: _217  and  MG_286
REMARK   95  A    between atoms: _221  and  _223
REMARK   96  A    between atoms: _223  and  _224
REMARK   97  A    between atoms: _223  and  _226
REMARK   98  A    between atoms: _226  and  _227
REMARK   99  A    between atoms: _230  and  _232
REMARK  100  A    between atoms: _232  and  _233
REMARK  101  A    between atoms: _232  and  _235
REMARK  102  A    between atoms: _235  and  _236
REMARK  103  A    between atoms: _239  and  _241
REMARK  104  A    between atoms: _241  and  _242
REMARK  105  A    between atoms: _241  and  _244
REMARK  106  A    between atoms: _247  and  _249
REMARK  107  A    between atoms: _249  and  _250
REMARK  108  A    between atoms: _249  and  _252
REMARK  109  A    between atoms: _252  and  _253
REMARK  110  A    between atoms: _256  and  _258
REMARK  111  A    between atoms: _258  and  _259
REMARK  112  A    between atoms: _258  and  _261
REMARK  113  A    between atoms: _261  and  _262
REMARK  114  A    between atoms: _267  and  _269
REMARK  115  A    between atoms: _269  and  _270
REMARK  116  A    between atoms: _269  and  _272
REMARK  117  A    between atoms: _272  and  _273
REMARK  118  A    between atoms: _273  and  _274
REMARK  119  A    between atoms: _276  and  _278
REMARK  120  A    between atoms: _278  and  _279
REMARK  121  A    between atoms: _281  and  _283
REMARK  122  A    between atoms: _283  and  _284
REMARK                            x       y       z     vdW  Elec       q    Type
REMARK                         _______ _______ _______ _____ _____    ______ ____
ROOT
ATOM      1  O   HOH     1     -20.103  50.855  -4.220  0.00  0.00    +0.000 OA
ENDROOT
TORSDOF 0
REMARK  Name = ../refined-set-2016/2cbz/2cbz_pocket.pdb
REMARK  122 active torsions:
REMARK  status: ('A' for Active; 'I' for Inactive)
REMARK    1  A    between atoms: _1  and  _3
REMARK    2  A    between atoms: _3  and  _4
REMARK    3  A    between atoms: _3  and  _6
REMARK    4  A    between atoms: _6  and  _7
REMARK    5  A    between atoms: _10  and  _12
REMARK    6  A    between atoms: _12  and  _13
REMARK    7  A    between atoms: _12  and  _15
REMARK    8  A    between atoms: _15  and  _16
REMARK    9  A    between atoms: _26  and  _28
REMARK   10  A    between atoms: _28  and  _29
REMARK   11  A    between atoms: _33  and  _34
REMARK   12  A    between atoms: _39  and  _41
REMARK   13  A    between atoms: _41  and  _42
REMARK   14  A    between atoms: _41  and  _44
REMARK   15  A    between atoms: _44  and  _45
REMARK   16  A    between atoms: _48  and  _50
REMARK   17  A    between atoms: _50  and  _51
REMARK   18  A    between atoms: _50  and  _53
REMARK   19  A    between atoms: _53  and  _54
REMARK   20  A    between atoms: _57  and  _59
REMARK   21  A    between atoms: _59  and  _60
REMARK   22  A    between atoms: _59  and  _62
REMARK   23  A    between atoms: _65  and  _67
REMARK   24  A    between atoms: _67  and  _68
REMARK   25  A    between atoms: _67  and  _70
REMARK   26  A    between atoms: _73  and  _75
REMARK   27  A    between atoms: _75  and  _76
REMARK   28  A    between atoms: _78  and  _80
REMARK   29  A    between atoms: _80  and  _81
REMARK   30  A    between atoms: _80  and  _83
REMARK   31  A    between atoms: _83  and  _84
REMARK   32  A    between atoms: _84  and  _85
REMARK   33  A    between atoms: _90  and  _92
REMARK   34  A    between atoms: _92  and  _93
REMARK   35  A    between atoms: _92  and  _95
REMARK   36  A    between atoms: _98  and  _100
REMARK   37  A    between atoms: _100  and  _101
REMARK   38  A    between atoms: _103  and  _105
REMARK   39  A    between atoms: _105  and  _106
REMARK   40  A    between atoms: _105  and  _108
REMARK   41  A    between atoms: _110  and  _112
REMARK   42  A    between atoms: _112  and  _113
REMARK   43  A    between atoms: _115  and  _117
REMARK   44  A    between atoms: _117  and  _118
REMARK   45  A    between atoms: _117  and  _120
REMARK   46  A    between atoms: _120  and  _121
REMARK   47  A    between atoms: _121  and  _122
REMARK   48  A    between atoms: _122  and  _123
REMARK   49  A    between atoms: _123  and  _124
REMARK   50  A    between atoms: _128  and  _130
REMARK   51  A    between atoms: _130  and  _131
REMARK   52  A    between atoms: _130  and  _133
REMARK   53  A    between atoms: _133  and  _134
REMARK   54  A    between atoms: _136  and  _138
REMARK   55  A    between atoms: _138  and  _139
REMARK   56  A    between atoms: _138  and  _141
REMARK   57  A    between atoms: _141  and  _142
REMARK   58  A    between atoms: _144  and  _146
REMARK   59  A    between atoms: _146  and  _147
REMARK   60  A    between atoms: _146  and  _149
REMARK   61  A    between atoms: _149  and  _150
REMARK   62  A    between atoms: _153  and  _155
REMARK   63  A    between atoms: _155  and  _156
REMARK   64  A    between atoms: _155  and  _158
REMARK   65  A    between atoms: _158  and  _159
REMARK   66  A    between atoms: _162  and  _164
REMARK   67  A    between atoms: _164  and  _165
REMARK   68  A    between atoms: _164  and  _167
REMARK   69  A    between atoms: _167  and  _168
REMARK   70  A    between atoms: _170  and  _172
REMARK   71  A    between atoms: _172  and  _173
REMARK   72  A    between atoms: _176  and  _178
REMARK   73  A    between atoms: _178  and  _179
REMARK   74  A    between atoms: _178  and  _181
REMARK   75  A    between atoms: _181  and  _182
REMARK   76  A    between atoms: _182  and  _183
REMARK   77  A    between atoms: _186  and  _188
REMARK   78  A    between atoms: _188  and  _189
REMARK   79  A    between atoms: _188  and  _191
REMARK   80  A    between atoms: _191  and  _192
REMARK   81  A    between atoms: _192  and  _193
REMARK   82  A    between atoms: _195  and  _197
REMARK   83  A    between atoms: _197  and  _198
REMARK   84  A    between atoms: _197  and  _200
REMARK   85  A    between atoms: _200  and  _201
REMARK   86  A    between atoms: _206  and  _207
REMARK   87  A    between atoms: _209  and  _211
REMARK   88  A    between atoms: _211  and  _212
REMARK   89  A    between atoms: _211  and  _214
REMARK   90  A    between atoms: _214  and  _215
REMARK   91  A    between atoms: _215  and  _216
REMARK   92  A    between atoms: _216  and  _217
REMARK   93  A    between atoms: _216  and  _218
REMARK   94  A    between atoms: _217  and  MG_286
REMARK   95  A    between atoms: _221  and  _223
REMARK   96  A    between atoms: _223  and  _224
REMARK   97  A    between atoms: _223  and  _226
REMARK   98  A    between atoms: _226  and  _227
REMARK   99  A    between atoms: _230  and  _232
REMARK  100  A    between atoms: _232  and  _233
REMARK  101  A    between atoms: _232  and  _235
REMARK  102  A    between atoms: _235  and  _236
REMARK  103  A    between atoms: _239  and  _241
REMARK  104  A    between atoms: _241  and  _242
REMARK  105  A    between atoms: _241  and  _244
REMARK  106  A    between atoms: _247  and  _249
REMARK  107  A    between atoms: _249  and  _250
REMARK  108  A    between atoms: _249  and  _252
REMARK  109  A    between atoms: _252  and  _253
REMARK  110  A    between atoms: _256  and  _258
REMARK  111  A    between atoms: _258  and  _259
REMARK  112  A    between atoms: _258  and  _261
REMARK  113  A    between atoms: _261  and  _262
REMARK  114  A    between atoms: _267  and  _269
REMARK  115  A    between atoms: _269  and  _270
REMARK  116  A    between atoms: _269  and  _272
REMARK  117  A    between atoms: _272  and  _273
REMARK  118  A    between atoms: _273  and  _274
REMARK  119  A    between atoms: _276  and  _278
REMARK  120  A    between atoms: _278  and  _279
REMARK  121  A    between atoms: _281  and  _283
REMARK  122  A    between atoms: _283  and  _284
REMARK                            x       y       z     vdW  Elec       q    Type
REMARK                         _______ _______ _______ _____ _____    ______ ____
ROOT
ATOM      1  O   HOH     1     -25.516  48.952   9.708  0.00  0.00    +0.000 OA
ENDROOT
TORSDOF 0
REMARK  Name = ../refined-set-2016/2cbz/2cbz_pocket.pdb
REMARK  122 active torsions:
REMARK  status: ('A' for Active; 'I' for Inactive)
REMARK    1  A    between atoms: _1  and  _3
REMARK    2  A    between atoms: _3  and  _4
REMARK    3  A    between atoms: _3  and  _6
REMARK    4  A    between atoms: _6  and  _7
REMARK    5  A    between atoms: _10  and  _12
REMARK    6  A    between atoms: _12  and  _13
REMARK    7  A    between atoms: _12  and  _15
REMARK    8  A    between atoms: _15  and  _16
REMARK    9  A    between atoms: _26  and  _28
REMARK   10  A    between atoms: _28  and  _29
REMARK   11  A    between atoms: _33  and  _34
REMARK   12  A    between atoms: _39  and  _41
REMARK   13  A    between atoms: _41  and  _42
REMARK   14  A    between atoms: _41  and  _44
REMARK   15  A    between atoms: _44  and  _45
REMARK   16  A    between atoms: _48  and  _50
REMARK   17  A    between atoms: _50  and  _51
REMARK   18  A    between atoms: _50  and  _53
REMARK   19  A    between atoms: _53  and  _54
REMARK   20  A    between atoms: _57  and  _59
REMARK   21  A    between atoms: _59  and  _60
REMARK   22  A    between atoms: _59  and  _62
REMARK   23  A    between atoms: _65  and  _67
REMARK   24  A    between atoms: _67  and  _68
REMARK   25  A    between atoms: _67  and  _70
REMARK   26  A    between atoms: _73  and  _75
REMARK   27  A    between atoms: _75  and  _76
REMARK   28  A    between atoms: _78  and  _80
REMARK   29  A    between atoms: _80  and  _81
REMARK   30  A    between atoms: _80  and  _83
REMARK   31  A    between atoms: _83  and  _84
REMARK   32  A    between atoms: _84  and  _85
REMARK   33  A    between atoms: _90  and  _92
REMARK   34  A    between atoms: _92  and  _93
REMARK   35  A    between atoms: _92  and  _95
REMARK   36  A    between atoms: _98  and  _100
REMARK   37  A    between atoms: _100  and  _101
REMARK   38  A    between atoms: _103  and  _105
REMARK   39  A    between atoms: _105  and  _106
REMARK   40  A    between atoms: _105  and  _108
REMARK   41  A    between atoms: _110  and  _112
REMARK   42  A    between atoms: _112  and  _113
REMARK   43  A    between atoms: _115  and  _117
REMARK   44  A    between atoms: _117  and  _118
REMARK   45  A    between atoms: _117  and  _120
REMARK   46  A    between atoms: _120  and  _121
REMARK   47  A    between atoms: _121  and  _122
REMARK   48  A    between atoms: _122  and  _123
REMARK   49  A    between atoms: _123  and  _124
REMARK   50  A    between atoms: _128  and  _130
REMARK   51  A    between atoms: _130  and  _131
REMARK   52  A    between atoms: _130  and  _133
REMARK   53  A    between atoms: _133  and  _134
REMARK   54  A    between atoms: _136  and  _138
REMARK   55  A    between atoms: _138  and  _139
REMARK   56  A    between atoms: _138  and  _141
REMARK   57  A    between atoms: _141  and  _142
REMARK   58  A    between atoms: _144  and  _146
REMARK   59  A    between atoms: _146  and  _147
REMARK   60  A    between atoms: _146  and  _149
REMARK   61  A    between atoms: _149  and  _150
REMARK   62  A    between atoms: _153  and  _155
REMARK   63  A    between atoms: _155  and  _156
REMARK   64  A    between atoms: _155  and  _158
REMARK   65  A    between atoms: _158  and  _159
REMARK   66  A    between atoms: _162  and  _164
REMARK   67  A    between atoms: _164  and  _165
REMARK   68  A    between atoms: _164  and  _167
REMARK   69  A    between atoms: _167  and  _168
REMARK   70  A    between atoms: _170  and  _172
REMARK   71  A    between atoms: _172  and  _173
REMARK   72  A    between atoms: _176  and  _178
REMARK   73  A    between atoms: _178  and  _179
REMARK   74  A    between atoms: _178  and  _181
REMARK   75  A    between atoms: _181  and  _182
REMARK   76  A    between atoms: _182  and  _183
REMARK   77  A    between atoms: _186  and  _188
REMARK   78  A    between atoms: _188  and  _189
REMARK   79  A    between atoms: _188  and  _191
REMARK   80  A    between atoms: _191  and  _192
REMARK   81  A    between atoms: _192  and  _193
REMARK   82  A    between atoms: _195  and  _197
REMARK   83  A    between atoms: _197  and  _198
REMARK   84  A    between atoms: _197  and  _200
REMARK   85  A    between atoms: _200  and  _201
REMARK   86  A    between atoms: _206  and  _207
REMARK   87  A    between atoms: _209  and  _211
REMARK   88  A    between atoms: _211  and  _212
REMARK   89  A    between atoms: _211  and  _214
REMARK   90  A    between atoms: _214  and  _215
REMARK   91  A    between atoms: _215  and  _216
REMARK   92  A    between atoms: _216  and  _217
REMARK   93  A    between atoms: _216  and  _218
REMARK   94  A    between atoms: _217  and  MG_286
REMARK   95  A    between atoms: _221  and  _223
REMARK   96  A    between atoms: _223  and  _224
REMARK   97  A    between atoms: _223  and  _226
REMARK   98  A    between atoms: _226  and  _227
REMARK   99  A    between atoms: _230  and  _232
REMARK  100  A    between atoms: _232  and  _233
REMARK  101  A    between atoms: _232  and  _235
REMARK  102  A    between atoms: _235  and  _236
REMARK  103  A    between atoms: _239  and  _241
REMARK  104  A    between atoms: _241  and  _242
REMARK  105  A    between atoms: _241  and  _244
REMARK  106  A    between atoms: _247  and  _249
REMARK  107  A    between atoms: _249  and  _250
REMARK  108  A    between atoms: _249  and  _252
REMARK  109  A    between atoms: _252  and  _253
REMARK  110  A    between atoms: _256  and  _258
REMARK  111  A    between atoms: _258  and  _259
REMARK  112  A    between atoms: _258  and  _261
REMARK  113  A    between atoms: _261  and  _262
REMARK  114  A    between atoms: _267  and  _269
REMARK  115  A    between atoms: _269  and  _270
REMARK  116  A    between atoms: _269  and  _272
REMARK  117  A    between atoms: _272  and  _273
REMARK  118  A    between atoms: _273  and  _274
REMARK  119  A    between atoms: _276  and  _278
REMARK  120  A    between atoms: _278  and  _279
REMARK  121  A    between atoms: _281  and  _283
REMARK  122  A    between atoms: _283  and  _284
REMARK                            x       y       z     vdW  Elec       q    Type
REMARK                         _______ _______ _______ _____ _____    ______ ____
ROOT
ATOM      1  O   HOH     1     -28.060  46.609   1.945  0.00  0.00    +0.000 OA
ENDROOT
TORSDOF 0
REMARK  Name = ../refined-set-2016/2cbz/2cbz_pocket.pdb
REMARK  122 active torsions:
REMARK  status: ('A' for Active; 'I' for Inactive)
REMARK    1  A    between atoms: _1  and  _3
REMARK    2  A    between atoms: _3  and  _4
REMARK    3  A    between atoms: _3  and  _6
REMARK    4  A    between atoms: _6  and  _7
REMARK    5  A    between atoms: _10  and  _12
REMARK    6  A    between atoms: _12  and  _13
REMARK    7  A    between atoms: _12  and  _15
REMARK    8  A    between atoms: _15  and  _16
REMARK    9  A    between atoms: _26  and  _28
REMARK   10  A    between atoms: _28  and  _29
REMARK   11  A    between atoms: _33  and  _34
REMARK   12  A    between atoms: _39  and  _41
REMARK   13  A    between atoms: _41  and  _42
REMARK   14  A    between atoms: _41  and  _44
REMARK   15  A    between atoms: _44  and  _45
REMARK   16  A    between atoms: _48  and  _50
REMARK   17  A    between atoms: _50  and  _51
REMARK   18  A    between atoms: _50  and  _53
REMARK   19  A    between atoms: _53  and  _54
REMARK   20  A    between atoms: _57  and  _59
REMARK   21  A    between atoms: _59  and  _60
REMARK   22  A    between atoms: _59  and  _62
REMARK   23  A    between atoms: _65  and  _67
REMARK   24  A    between atoms: _67  and  _68
REMARK   25  A    between atoms: _67  and  _70
REMARK   26  A    between atoms: _73  and  _75
REMARK   27  A    between atoms: _75  and  _76
REMARK   28  A    between atoms: _78  and  _80
REMARK   29  A    between atoms: _80  and  _81
REMARK   30  A    between atoms: _80  and  _83
REMARK   31  A    between atoms: _83  and  _84
REMARK   32  A    between atoms: _84  and  _85
REMARK   33  A    between atoms: _90  and  _92
REMARK   34  A    between atoms: _92  and  _93
REMARK   35  A    between atoms: _92  and  _95
REMARK   36  A    between atoms: _98  and  _100
REMARK   37  A    between atoms: _100  and  _101
REMARK   38  A    between atoms: _103  and  _105
REMARK   39  A    between atoms: _105  and  _106
REMARK   40  A    between atoms: _105  and  _108
REMARK   41  A    between atoms: _110  and  _112
REMARK   42  A    between atoms: _112  and  _113
REMARK   43  A    between atoms: _115  and  _117
REMARK   44  A    between atoms: _117  and  _118
REMARK   45  A    between atoms: _117  and  _120
REMARK   46  A    between atoms: _120  and  _121
REMARK   47  A    between atoms: _121  and  _122
REMARK   48  A    between atoms: _122  and  _123
REMARK   49  A    between atoms: _123  and  _124
REMARK   50  A    between atoms: _128  and  _130
REMARK   51  A    between atoms: _130  and  _131
REMARK   52  A    between atoms: _130  and  _133
REMARK   53  A    between atoms: _133  and  _134
REMARK   54  A    between atoms: _136  and  _138
REMARK   55  A    between atoms: _138  and  _139
REMARK   56  A    between atoms: _138  and  _141
REMARK   57  A    between atoms: _141  and  _142
REMARK   58  A    between atoms: _144  and  _146
REMARK   59  A    between atoms: _146  and  _147
REMARK   60  A    between atoms: _146  and  _149
REMARK   61  A    between atoms: _149  and  _150
REMARK   62  A    between atoms: _153  and  _155
REMARK   63  A    between atoms: _155  and  _156
REMARK   64  A    between atoms: _155  and  _158
REMARK   65  A    between atoms: _158  and  _159
REMARK   66  A    between atoms: _162  and  _164
REMARK   67  A    between atoms: _164  and  _165
REMARK   68  A    between atoms: _164  and  _167
REMARK   69  A    between atoms: _167  and  _168
REMARK   70  A    between atoms: _170  and  _172
REMARK   71  A    between atoms: _172  and  _173
REMARK   72  A    between atoms: _176  and  _178
REMARK   73  A    between atoms: _178  and  _179
REMARK   74  A    between atoms: _178  and  _181
REMARK   75  A    between atoms: _181  and  _182
REMARK   76  A    between atoms: _182  and  _183
REMARK   77  A    between atoms: _186  and  _188
REMARK   78  A    between atoms: _188  and  _189
REMARK   79  A    between atoms: _188  and  _191
REMARK   80  A    between atoms: _191  and  _192
REMARK   81  A    between atoms: _192  and  _193
REMARK   82  A    between atoms: _195  and  _197
REMARK   83  A    between atoms: _197  and  _198
REMARK   84  A    between atoms: _197  and  _200
REMARK   85  A    between atoms: _200  and  _201
REMARK   86  A    between atoms: _206  and  _207
REMARK   87  A    between atoms: _209  and  _211
REMARK   88  A    between atoms: _211  and  _212
REMARK   89  A    between atoms: _211  and  _214
REMARK   90  A    between atoms: _214  and  _215
REMARK   91  A    between atoms: _215  and  _216
REMARK   92  A    between atoms: _216  and  _217
REMARK   93  A    between atoms: _216  and  _218
REMARK   94  A    between atoms: _217  and  MG_286
REMARK   95  A    between atoms: _221  and  _223
REMARK   96  A    between atoms: _223  and  _224
REMARK   97  A    between atoms: _223  and  _226
REMARK   98  A    between atoms: _226  and  _227
REMARK   99  A    between atoms: _230  and  _232
REMARK  100  A    between atoms: _232  and  _233
REMARK  101  A    between atoms: _232  and  _235
REMARK  102  A    between atoms: _235  and  _236
REMARK  103  A    between atoms: _239  and  _241
REMARK  104  A    between atoms: _241  and  _242
REMARK  105  A    between atoms: _241  and  _244
REMARK  106  A    between atoms: _247  and  _249
REMARK  107  A    between atoms: _249  and  _250
REMARK  108  A    between atoms: _249  and  _252
REMARK  109  A    between atoms: _252  and  _253
REMARK  110  A    between atoms: _256  and  _258
REMARK  111  A    between atoms: _258  and  _259
REMARK  112  A    between atoms: _258  and  _261
REMARK  113  A    between atoms: _261  and  _262
REMARK  114  A    between atoms: _267  and  _269
REMARK  115  A    between atoms: _269  and  _270
REMARK  116  A    between atoms: _269  and  _272
REMARK  117  A    between atoms: _272  and  _273
REMARK  118  A    between atoms: _273  and  _274
REMARK  119  A    between atoms: _276  and  _278
REMARK  120  A    between atoms: _278  and  _279
REMARK  121  A    between atoms: _281  and  _283
REMARK  122  A    between atoms: _283  and  _284
REMARK                            x       y       z     vdW  Elec       q    Type
REMARK                         _______ _______ _______ _____ _____    ______ ____
ROOT
ATOM      1  O   HOH     1     -28.923  47.693   7.619  0.00  0.00    +0.000 OA
ENDROOT
TORSDOF 0
REMARK  Name = ../refined-set-2016/2cbz/2cbz_pocket.pdb
REMARK  122 active torsions:
REMARK  status: ('A' for Active; 'I' for Inactive)
REMARK    1  A    between atoms: _1  and  _3
REMARK    2  A    between atoms: _3  and  _4
REMARK    3  A    between atoms: _3  and  _6
REMARK    4  A    between atoms: _6  and  _7
REMARK    5  A    between atoms: _10  and  _12
REMARK    6  A    between atoms: _12  and  _13
REMARK    7  A    between atoms: _12  and  _15
REMARK    8  A    between atoms: _15  and  _16
REMARK    9  A    between atoms: _26  and  _28
REMARK   10  A    between atoms: _28  and  _29
REMARK   11  A    between atoms: _33  and  _34
REMARK   12  A    between atoms: _39  and  _41
REMARK   13  A    between atoms: _41  and  _42
REMARK   14  A    between atoms: _41  and  _44
REMARK   15  A    between atoms: _44  and  _45
REMARK   16  A    between atoms: _48  and  _50
REMARK   17  A    between atoms: _50  and  _51
REMARK   18  A    between atoms: _50  and  _53
REMARK   19  A    between atoms: _53  and  _54
REMARK   20  A    between atoms: _57  and  _59
REMARK   21  A    between atoms: _59  and  _60
REMARK   22  A    between atoms: _59  and  _62
REMARK   23  A    between atoms: _65  and  _67
REMARK   24  A    between atoms: _67  and  _68
REMARK   25  A    between atoms: _67  and  _70
REMARK   26  A    between atoms: _73  and  _75
REMARK   27  A    between atoms: _75  and  _76
REMARK   28  A    between atoms: _78  and  _80
REMARK   29  A    between atoms: _80  and  _81
REMARK   30  A    between atoms: _80  and  _83
REMARK   31  A    between atoms: _83  and  _84
REMARK   32  A    between atoms: _84  and  _85
REMARK   33  A    between atoms: _90  and  _92
REMARK   34  A    between atoms: _92  and  _93
REMARK   35  A    between atoms: _92  and  _95
REMARK   36  A    between atoms: _98  and  _100
REMARK   37  A    between atoms: _100  and  _101
REMARK   38  A    between atoms: _103  and  _105
REMARK   39  A    between atoms: _105  and  _106
REMARK   40  A    between atoms: _105  and  _108
REMARK   41  A    between atoms: _110  and  _112
REMARK   42  A    between atoms: _112  and  _113
REMARK   43  A    between atoms: _115  and  _117
REMARK   44  A    between atoms: _117  and  _118
REMARK   45  A    between atoms: _117  and  _120
REMARK   46  A    between atoms: _120  and  _121
REMARK   47  A    between atoms: _121  and  _122
REMARK   48  A    between atoms: _122  and  _123
REMARK   49  A    between atoms: _123  and  _124
REMARK   50  A    between atoms: _128  and  _130
REMARK   51  A    between atoms: _130  and  _131
REMARK   52  A    between atoms: _130  and  _133
REMARK   53  A    between atoms: _133  and  _134
REMARK   54  A    between atoms: _136  and  _138
REMARK   55  A    between atoms: _138  and  _139
REMARK   56  A    between atoms: _138  and  _141
REMARK   57  A    between atoms: _141  and  _142
REMARK   58  A    between atoms: _144  and  _146
REMARK   59  A    between atoms: _146  and  _147
REMARK   60  A    between atoms: _146  and  _149
REMARK   61  A    between atoms: _149  and  _150
REMARK   62  A    between atoms: _153  and  _155
REMARK   63  A    between atoms: _155  and  _156
REMARK   64  A    between atoms: _155  and  _158
REMARK   65  A    between atoms: _158  and  _159
REMARK   66  A    between atoms: _162  and  _164
REMARK   67  A    between atoms: _164  and  _165
REMARK   68  A    between atoms: _164  and  _167
REMARK   69  A    between atoms: _167  and  _168
REMARK   70  A    between atoms: _170  and  _172
REMARK   71  A    between atoms: _172  and  _173
REMARK   72  A    between atoms: _176  and  _178
REMARK   73  A    between atoms: _178  and  _179
REMARK   74  A    between atoms: _178  and  _181
REMARK   75  A    between atoms: _181  and  _182
REMARK   76  A    between atoms: _182  and  _183
REMARK   77  A    between atoms: _186  and  _188
REMARK   78  A    between atoms: _188  and  _189
REMARK   79  A    between atoms: _188  and  _191
REMARK   80  A    between atoms: _191  and  _192
REMARK   81  A    between atoms: _192  and  _193
REMARK   82  A    between atoms: _195  and  _197
REMARK   83  A    between atoms: _197  and  _198
REMARK   84  A    between atoms: _197  and  _200
REMARK   85  A    between atoms: _200  and  _201
REMARK   86  A    between atoms: _206  and  _207
REMARK   87  A    between atoms: _209  and  _211
REMARK   88  A    between atoms: _211  and  _212
REMARK   89  A    between atoms: _211  and  _214
REMARK   90  A    between atoms: _214  and  _215
REMARK   91  A    between atoms: _215  and  _216
REMARK   92  A    between atoms: _216  and  _217
REMARK   93  A    between atoms: _216  and  _218
REMARK   94  A    between atoms: _217  and  MG_286
REMARK   95  A    between atoms: _221  and  _223
REMARK   96  A    between atoms: _223  and  _224
REMARK   97  A    between atoms: _223  and  _226
REMARK   98  A    between atoms: _226  and  _227
REMARK   99  A    between atoms: _230  and  _232
REMARK  100  A    between atoms: _232  and  _233
REMARK  101  A    between atoms: _232  and  _235
REMARK  102  A    between atoms: _235  and  _236
REMARK  103  A    between atoms: _239  and  _241
REMARK  104  A    between atoms: _241  and  _242
REMARK  105  A    between atoms: _241  and  _244
REMARK  106  A    between atoms: _247  and  _249
REMARK  107  A    between atoms: _249  and  _250
REMARK  108  A    between atoms: _249  and  _252
REMARK  109  A    between atoms: _252  and  _253
REMARK  110  A    between atoms: _256  and  _258
REMARK  111  A    between atoms: _258  and  _259
REMARK  112  A    between atoms: _258  and  _261
REMARK  113  A    between atoms: _261  and  _262
REMARK  114  A    between atoms: _267  and  _269
REMARK  115  A    between atoms: _269  and  _270
REMARK  116  A    between atoms: _269  and  _272
REMARK  117  A    between atoms: _272  and  _273
REMARK  118  A    between atoms: _273  and  _274
REMARK  119  A    between atoms: _276  and  _278
REMARK  120  A    between atoms: _278  and  _279
REMARK  121  A    between atoms: _281  and  _283
REMARK  122  A    between atoms: _283  and  _284
REMARK                            x       y       z     vdW  Elec       q    Type
REMARK                         _______ _______ _______ _____ _____    ______ ____
ROOT
ATOM      1  O   HOH     1     -23.234  47.704  -1.299  0.00  0.00    +0.000 OA
ENDROOT
TORSDOF 0
REMARK  Name = ../refined-set-2016/2cbz/2cbz_pocket.pdb
REMARK  122 active torsions:
REMARK  status: ('A' for Active; 'I' for Inactive)
REMARK    1  A    between atoms: _1  and  _3
REMARK    2  A    between atoms: _3  and  _4
REMARK    3  A    between atoms: _3  and  _6
REMARK    4  A    between atoms: _6  and  _7
REMARK    5  A    between atoms: _10  and  _12
REMARK    6  A    between atoms: _12  and  _13
REMARK    7  A    between atoms: _12  and  _15
REMARK    8  A    between atoms: _15  and  _16
REMARK    9  A    between atoms: _26  and  _28
REMARK   10  A    between atoms: _28  and  _29
REMARK   11  A    between atoms: _33  and  _34
REMARK   12  A    between atoms: _39  and  _41
REMARK   13  A    between atoms: _41  and  _42
REMARK   14  A    between atoms: _41  and  _44
REMARK   15  A    between atoms: _44  and  _45
REMARK   16  A    between atoms: _48  and  _50
REMARK   17  A    between atoms: _50  and  _51
REMARK   18  A    between atoms: _50  and  _53
REMARK   19  A    between atoms: _53  and  _54
REMARK   20  A    between atoms: _57  and  _59
REMARK   21  A    between atoms: _59  and  _60
REMARK   22  A    between atoms: _59  and  _62
REMARK   23  A    between atoms: _65  and  _67
REMARK   24  A    between atoms: _67  and  _68
REMARK   25  A    between atoms: _67  and  _70
REMARK   26  A    between atoms: _73  and  _75
REMARK   27  A    between atoms: _75  and  _76
REMARK   28  A    between atoms: _78  and  _80
REMARK   29  A    between atoms: _80  and  _81
REMARK   30  A    between atoms: _80  and  _83
REMARK   31  A    between atoms: _83  and  _84
REMARK   32  A    between atoms: _84  and  _85
REMARK   33  A    between atoms: _90  and  _92
REMARK   34  A    between atoms: _92  and  _93
REMARK   35  A    between atoms: _92  and  _95
REMARK   36  A    between atoms: _98  and  _100
REMARK   37  A    between atoms: _100  and  _101
REMARK   38  A    between atoms: _103  and  _105
REMARK   39  A    between atoms: _105  and  _106
REMARK   40  A    between atoms: _105  and  _108
REMARK   41  A    between atoms: _110  and  _112
REMARK   42  A    between atoms: _112  and  _113
REMARK   43  A    between atoms: _115  and  _117
REMARK   44  A    between atoms: _117  and  _118
REMARK   45  A    between atoms: _117  and  _120
REMARK   46  A    between atoms: _120  and  _121
REMARK   47  A    between atoms: _121  and  _122
REMARK   48  A    between atoms: _122  and  _123
REMARK   49  A    between atoms: _123  and  _124
REMARK   50  A    between atoms: _128  and  _130
REMARK   51  A    between atoms: _130  and  _131
REMARK   52  A    between atoms: _130  and  _133
REMARK   53  A    between atoms: _133  and  _134
REMARK   54  A    between atoms: _136  and  _138
REMARK   55  A    between atoms: _138  and  _139
REMARK   56  A    between atoms: _138  and  _141
REMARK   57  A    between atoms: _141  and  _142
REMARK   58  A    between atoms: _144  and  _146
REMARK   59  A    between atoms: _146  and  _147
REMARK   60  A    between atoms: _146  and  _149
REMARK   61  A    between atoms: _149  and  _150
REMARK   62  A    between atoms: _153  and  _155
REMARK   63  A    between atoms: _155  and  _156
REMARK   64  A    between atoms: _155  and  _158
REMARK   65  A    between atoms: _158  and  _159
REMARK   66  A    between atoms: _162  and  _164
REMARK   67  A    between atoms: _164  and  _165
REMARK   68  A    between atoms: _164  and  _167
REMARK   69  A    between atoms: _167  and  _168
REMARK   70  A    between atoms: _170  and  _172
REMARK   71  A    between atoms: _172  and  _173
REMARK   72  A    between atoms: _176  and  _178
REMARK   73  A    between atoms: _178  and  _179
REMARK   74  A    between atoms: _178  and  _181
REMARK   75  A    between atoms: _181  and  _182
REMARK   76  A    between atoms: _182  and  _183
REMARK   77  A    between atoms: _186  and  _188
REMARK   78  A    between atoms: _188  and  _189
REMARK   79  A    between atoms: _188  and  _191
REMARK   80  A    between atoms: _191  and  _192
REMARK   81  A    between atoms: _192  and  _193
REMARK   82  A    between atoms: _195  and  _197
REMARK   83  A    between atoms: _197  and  _198
REMARK   84  A    between atoms: _197  and  _200
REMARK   85  A    between atoms: _200  and  _201
REMARK   86  A    between atoms: _206  and  _207
REMARK   87  A    between atoms: _209  and  _211
REMARK   88  A    between atoms: _211  and  _212
REMARK   89  A    between atoms: _211  and  _214
REMARK   90  A    between atoms: _214  and  _215
REMARK   91  A    between atoms: _215  and  _216
REMARK   92  A    between atoms: _216  and  _217
REMARK   93  A    between atoms: _216  and  _218
REMARK   94  A    between atoms: _217  and  MG_286
REMARK   95  A    between atoms: _221  and  _223
REMARK   96  A    between atoms: _223  and  _224
REMARK   97  A    between atoms: _223  and  _226
REMARK   98  A    between atoms: _226  and  _227
REMARK   99  A    between atoms: _230  and  _232
REMARK  100  A    between atoms: _232  and  _233
REMARK  101  A    between atoms: _232  and  _235
REMARK  102  A    between atoms: _235  and  _236
REMARK  103  A    between atoms: _239  and  _241
REMARK  104  A    between atoms: _241  and  _242
REMARK  105  A    between atoms: _241  and  _244
REMARK  106  A    between atoms: _247  and  _249
REMARK  107  A    between atoms: _249  and  _250
REMARK  108  A    between atoms: _249  and  _252
REMARK  109  A    between atoms: _252  and  _253
REMARK  110  A    between atoms: _256  and  _258
REMARK  111  A    between atoms: _258  and  _259
REMARK  112  A    between atoms: _258  and  _261
REMARK  113  A    between atoms: _261  and  _262
REMARK  114  A    between atoms: _267  and  _269
REMARK  115  A    between atoms: _269  and  _270
REMARK  116  A    between atoms: _269  and  _272
REMARK  117  A    between atoms: _272  and  _273
REMARK  118  A    between atoms: _273  and  _274
REMARK  119  A    between atoms: _276  and  _278
REMARK  120  A    between atoms: _278  and  _279
REMARK  121  A    between atoms: _281  and  _283
REMARK  122  A    between atoms: _283  and  _284
REMARK                            x       y       z     vdW  Elec       q    Type
REMARK                         _______ _______ _______ _____ _____    ______ ____
ROOT
ATOM      1  O   HOH     1     -23.591  51.979  -1.138  0.00  0.00    +0.000 OA
ENDROOT
TORSDOF 0
REMARK  Name = ../refined-set-2016/2cbz/2cbz_pocket.pdb
REMARK  122 active torsions:
REMARK  status: ('A' for Active; 'I' for Inactive)
REMARK    1  A    between atoms: _1  and  _3
REMARK    2  A    between atoms: _3  and  _4
REMARK    3  A    between atoms: _3  and  _6
REMARK    4  A    between atoms: _6  and  _7
REMARK    5  A    between atoms: _10  and  _12
REMARK    6  A    between atoms: _12  and  _13
REMARK    7  A    between atoms: _12  and  _15
REMARK    8  A    between atoms: _15  and  _16
REMARK    9  A    between atoms: _26  and  _28
REMARK   10  A    between atoms: _28  and  _29
REMARK   11  A    between atoms: _33  and  _34
REMARK   12  A    between atoms: _39  and  _41
REMARK   13  A    between atoms: _41  and  _42
REMARK   14  A    between atoms: _41  and  _44
REMARK   15  A    between atoms: _44  and  _45
REMARK   16  A    between atoms: _48  and  _50
REMARK   17  A    between atoms: _50  and  _51
REMARK   18  A    between atoms: _50  and  _53
REMARK   19  A    between atoms: _53  and  _54
REMARK   20  A    between atoms: _57  and  _59
REMARK   21  A    between atoms: _59  and  _60
REMARK   22  A    between atoms: _59  and  _62
REMARK   23  A    between atoms: _65  and  _67
REMARK   24  A    between atoms: _67  and  _68
REMARK   25  A    between atoms: _67  and  _70
REMARK   26  A    between atoms: _73  and  _75
REMARK   27  A    between atoms: _75  and  _76
REMARK   28  A    between atoms: _78  and  _80
REMARK   29  A    between atoms: _80  and  _81
REMARK   30  A    between atoms: _80  and  _83
REMARK   31  A    between atoms: _83  and  _84
REMARK   32  A    between atoms: _84  and  _85
REMARK   33  A    between atoms: _90  and  _92
REMARK   34  A    between atoms: _92  and  _93
REMARK   35  A    between atoms: _92  and  _95
REMARK   36  A    between atoms: _98  and  _100
REMARK   37  A    between atoms: _100  and  _101
REMARK   38  A    between atoms: _103  and  _105
REMARK   39  A    between atoms: _105  and  _106
REMARK   40  A    between atoms: _105  and  _108
REMARK   41  A    between atoms: _110  and  _112
REMARK   42  A    between atoms: _112  and  _113
REMARK   43  A    between atoms: _115  and  _117
REMARK   44  A    between atoms: _117  and  _118
REMARK   45  A    between atoms: _117  and  _120
REMARK   46  A    between atoms: _120  and  _121
REMARK   47  A    between atoms: _121  and  _122
REMARK   48  A    between atoms: _122  and  _123
REMARK   49  A    between atoms: _123  and  _124
REMARK   50  A    between atoms: _128  and  _130
REMARK   51  A    between atoms: _130  and  _131
REMARK   52  A    between atoms: _130  and  _133
REMARK   53  A    between atoms: _133  and  _134
REMARK   54  A    between atoms: _136  and  _138
REMARK   55  A    between atoms: _138  and  _139
REMARK   56  A    between atoms: _138  and  _141
REMARK   57  A    between atoms: _141  and  _142
REMARK   58  A    between atoms: _144  and  _146
REMARK   59  A    between atoms: _146  and  _147
REMARK   60  A    between atoms: _146  and  _149
REMARK   61  A    between atoms: _149  and  _150
REMARK   62  A    between atoms: _153  and  _155
REMARK   63  A    between atoms: _155  and  _156
REMARK   64  A    between atoms: _155  and  _158
REMARK   65  A    between atoms: _158  and  _159
REMARK   66  A    between atoms: _162  and  _164
REMARK   67  A    between atoms: _164  and  _165
REMARK   68  A    between atoms: _164  and  _167
REMARK   69  A    between atoms: _167  and  _168
REMARK   70  A    between atoms: _170  and  _172
REMARK   71  A    between atoms: _172  and  _173
REMARK   72  A    between atoms: _176  and  _178
REMARK   73  A    between atoms: _178  and  _179
REMARK   74  A    between atoms: _178  and  _181
REMARK   75  A    between atoms: _181  and  _182
REMARK   76  A    between atoms: _182  and  _183
REMARK   77  A    between atoms: _186  and  _188
REMARK   78  A    between atoms: _188  and  _189
REMARK   79  A    between atoms: _188  and  _191
REMARK   80  A    between atoms: _191  and  _192
REMARK   81  A    between atoms: _192  and  _193
REMARK   82  A    between atoms: _195  and  _197
REMARK   83  A    between atoms: _197  and  _198
REMARK   84  A    between atoms: _197  and  _200
REMARK   85  A    between atoms: _200  and  _201
REMARK   86  A    between atoms: _206  and  _207
REMARK   87  A    between atoms: _209  and  _211
REMARK   88  A    between atoms: _211  and  _212
REMARK   89  A    between atoms: _211  and  _214
REMARK   90  A    between atoms: _214  and  _215
REMARK   91  A    between atoms: _215  and  _216
REMARK   92  A    between atoms: _216  and  _217
REMARK   93  A    between atoms: _216  and  _218
REMARK   94  A    between atoms: _217  and  MG_286
REMARK   95  A    between atoms: _221  and  _223
REMARK   96  A    between atoms: _223  and  _224
REMARK   97  A    between atoms: _223  and  _226
REMARK   98  A    between atoms: _226  and  _227
REMARK   99  A    between atoms: _230  and  _232
REMARK  100  A    between atoms: _232  and  _233
REMARK  101  A    between atoms: _232  and  _235
REMARK  102  A    between atoms: _235  and  _236
REMARK  103  A    between atoms: _239  and  _241
REMARK  104  A    between atoms: _241  and  _242
REMARK  105  A    between atoms: _241  and  _244
REMARK  106  A    between atoms: _247  and  _249
REMARK  107  A    between atoms: _249  and  _250
REMARK  108  A    between atoms: _249  and  _252
REMARK  109  A    between atoms: _252  and  _253
REMARK  110  A    between atoms: _256  and  _258
REMARK  111  A    between atoms: _258  and  _259
REMARK  112  A    between atoms: _258  and  _261
REMARK  113  A    between atoms: _261  and  _262
REMARK  114  A    between atoms: _267  and  _269
REMARK  115  A    between atoms: _269  and  _270
REMARK  116  A    between atoms: _269  and  _272
REMARK  117  A    between atoms: _272  and  _273
REMARK  118  A    between atoms: _273  and  _274
REMARK  119  A    between atoms: _276  and  _278
REMARK  120  A    between atoms: _278  and  _279
REMARK  121  A    between atoms: _281  and  _283
REMARK  122  A    between atoms: _283  and  _284
REMARK                            x       y       z     vdW  Elec       q    Type
REMARK                         _______ _______ _______ _____ _____    ______ ____
ROOT
ATOM      1  O   HOH     1     -13.458  48.295   3.478  0.00  0.00    +0.000 OA
ENDROOT
TORSDOF 0
REMARK  Name = ../refined-set-2016/2cbz/2cbz_pocket.pdb
REMARK  122 active torsions:
REMARK  status: ('A' for Active; 'I' for Inactive)
REMARK    1  A    between atoms: _1  and  _3
REMARK    2  A    between atoms: _3  and  _4
REMARK    3  A    between atoms: _3  and  _6
REMARK    4  A    between atoms: _6  and  _7
REMARK    5  A    between atoms: _10  and  _12
REMARK    6  A    between atoms: _12  and  _13
REMARK    7  A    between atoms: _12  and  _15
REMARK    8  A    between atoms: _15  and  _16
REMARK    9  A    between atoms: _26  and  _28
REMARK   10  A    between atoms: _28  and  _29
REMARK   11  A    between atoms: _33  and  _34
REMARK   12  A    between atoms: _39  and  _41
REMARK   13  A    between atoms: _41  and  _42
REMARK   14  A    between atoms: _41  and  _44
REMARK   15  A    between atoms: _44  and  _45
REMARK   16  A    between atoms: _48  and  _50
REMARK   17  A    between atoms: _50  and  _51
REMARK   18  A    between atoms: _50  and  _53
REMARK   19  A    between atoms: _53  and  _54
REMARK   20  A    between atoms: _57  and  _59
REMARK   21  A    between atoms: _59  and  _60
REMARK   22  A    between atoms: _59  and  _62
REMARK   23  A    between atoms: _65  and  _67
REMARK   24  A    between atoms: _67  and  _68
REMARK   25  A    between atoms: _67  and  _70
REMARK   26  A    between atoms: _73  and  _75
REMARK   27  A    between atoms: _75  and  _76
REMARK   28  A    between atoms: _78  and  _80
REMARK   29  A    between atoms: _80  and  _81
REMARK   30  A    between atoms: _80  and  _83
REMARK   31  A    between atoms: _83  and  _84
REMARK   32  A    between atoms: _84  and  _85
REMARK   33  A    between atoms: _90  and  _92
REMARK   34  A    between atoms: _92  and  _93
REMARK   35  A    between atoms: _92  and  _95
REMARK   36  A    between atoms: _98  and  _100
REMARK   37  A    between atoms: _100  and  _101
REMARK   38  A    between atoms: _103  and  _105
REMARK   39  A    between atoms: _105  and  _106
REMARK   40  A    between atoms: _105  and  _108
REMARK   41  A    between atoms: _110  and  _112
REMARK   42  A    between atoms: _112  and  _113
REMARK   43  A    between atoms: _115  and  _117
REMARK   44  A    between atoms: _117  and  _118
REMARK   45  A    between atoms: _117  and  _120
REMARK   46  A    between atoms: _120  and  _121
REMARK   47  A    between atoms: _121  and  _122
REMARK   48  A    between atoms: _122  and  _123
REMARK   49  A    between atoms: _123  and  _124
REMARK   50  A    between atoms: _128  and  _130
REMARK   51  A    between atoms: _130  and  _131
REMARK   52  A    between atoms: _130  and  _133
REMARK   53  A    between atoms: _133  and  _134
REMARK   54  A    between atoms: _136  and  _138
REMARK   55  A    between atoms: _138  and  _139
REMARK   56  A    between atoms: _138  and  _141
REMARK   57  A    between atoms: _141  and  _142
REMARK   58  A    between atoms: _144  and  _146
REMARK   59  A    between atoms: _146  and  _147
REMARK   60  A    between atoms: _146  and  _149
REMARK   61  A    between atoms: _149  and  _150
REMARK   62  A    between atoms: _153  and  _155
REMARK   63  A    between atoms: _155  and  _156
REMARK   64  A    between atoms: _155  and  _158
REMARK   65  A    between atoms: _158  and  _159
REMARK   66  A    between atoms: _162  and  _164
REMARK   67  A    between atoms: _164  and  _165
REMARK   68  A    between atoms: _164  and  _167
REMARK   69  A    between atoms: _167  and  _168
REMARK   70  A    between atoms: _170  and  _172
REMARK   71  A    between atoms: _172  and  _173
REMARK   72  A    between atoms: _176  and  _178
REMARK   73  A    between atoms: _178  and  _179
REMARK   74  A    between atoms: _178  and  _181
REMARK   75  A    between atoms: _181  and  _182
REMARK   76  A    between atoms: _182  and  _183
REMARK   77  A    between atoms: _186  and  _188
REMARK   78  A    between atoms: _188  and  _189
REMARK   79  A    between atoms: _188  and  _191
REMARK   80  A    between atoms: _191  and  _192
REMARK   81  A    between atoms: _192  and  _193
REMARK   82  A    between atoms: _195  and  _197
REMARK   83  A    between atoms: _197  and  _198
REMARK   84  A    between atoms: _197  and  _200
REMARK   85  A    between atoms: _200  and  _201
REMARK   86  A    between atoms: _206  and  _207
REMARK   87  A    between atoms: _209  and  _211
REMARK   88  A    between atoms: _211  and  _212
REMARK   89  A    between atoms: _211  and  _214
REMARK   90  A    between atoms: _214  and  _215
REMARK   91  A    between atoms: _215  and  _216
REMARK   92  A    between atoms: _216  and  _217
REMARK   93  A    between atoms: _216  and  _218
REMARK   94  A    between atoms: _217  and  MG_286
REMARK   95  A    between atoms: _221  and  _223
REMARK   96  A    between atoms: _223  and  _224
REMARK   97  A    between atoms: _223  and  _226
REMARK   98  A    between atoms: _226  and  _227
REMARK   99  A    between atoms: _230  and  _232
REMARK  100  A    between atoms: _232  and  _233
REMARK  101  A    between atoms: _232  and  _235
REMARK  102  A    between atoms: _235  and  _236
REMARK  103  A    between atoms: _239  and  _241
REMARK  104  A    between atoms: _241  and  _242
REMARK  105  A    between atoms: _241  and  _244
REMARK  106  A    between atoms: _247  and  _249
REMARK  107  A    between atoms: _249  and  _250
REMARK  108  A    between atoms: _249  and  _252
REMARK  109  A    between atoms: _252  and  _253
REMARK  110  A    between atoms: _256  and  _258
REMARK  111  A    between atoms: _258  and  _259
REMARK  112  A    between atoms: _258  and  _261
REMARK  113  A    between atoms: _261  and  _262
REMARK  114  A    between atoms: _267  and  _269
REMARK  115  A    between atoms: _269  and  _270
REMARK  116  A    between atoms: _269  and  _272
REMARK  117  A    between atoms: _272  and  _273
REMARK  118  A    between atoms: _273  and  _274
REMARK  119  A    between atoms: _276  and  _278
REMARK  120  A    between atoms: _278  and  _279
REMARK  121  A    between atoms: _281  and  _283
REMARK  122  A    between atoms: _283  and  _284
REMARK                            x       y       z     vdW  Elec       q    Type
REMARK                         _______ _______ _______ _____ _____    ______ ____
ROOT
ATOM      1  O   HOH     1      -9.520  48.577   4.813  0.00  0.00    +0.000 OA
ENDROOT
TORSDOF 0
REMARK  Name = ../refined-set-2016/2cbz/2cbz_pocket.pdb
REMARK  122 active torsions:
REMARK  status: ('A' for Active; 'I' for Inactive)
REMARK    1  A    between atoms: _1  and  _3
REMARK    2  A    between atoms: _3  and  _4
REMARK    3  A    between atoms: _3  and  _6
REMARK    4  A    between atoms: _6  and  _7
REMARK    5  A    between atoms: _10  and  _12
REMARK    6  A    between atoms: _12  and  _13
REMARK    7  A    between atoms: _12  and  _15
REMARK    8  A    between atoms: _15  and  _16
REMARK    9  A    between atoms: _26  and  _28
REMARK   10  A    between atoms: _28  and  _29
REMARK   11  A    between atoms: _33  and  _34
REMARK   12  A    between atoms: _39  and  _41
REMARK   13  A    between atoms: _41  and  _42
REMARK   14  A    between atoms: _41  and  _44
REMARK   15  A    between atoms: _44  and  _45
REMARK   16  A    between atoms: _48  and  _50
REMARK   17  A    between atoms: _50  and  _51
REMARK   18  A    between atoms: _50  and  _53
REMARK   19  A    between atoms: _53  and  _54
REMARK   20  A    between atoms: _57  and  _59
REMARK   21  A    between atoms: _59  and  _60
REMARK   22  A    between atoms: _59  and  _62
REMARK   23  A    between atoms: _65  and  _67
REMARK   24  A    between atoms: _67  and  _68
REMARK   25  A    between atoms: _67  and  _70
REMARK   26  A    between atoms: _73  and  _75
REMARK   27  A    between atoms: _75  and  _76
REMARK   28  A    between atoms: _78  and  _80
REMARK   29  A    between atoms: _80  and  _81
REMARK   30  A    between atoms: _80  and  _83
REMARK   31  A    between atoms: _83  and  _84
REMARK   32  A    between atoms: _84  and  _85
REMARK   33  A    between atoms: _90  and  _92
REMARK   34  A    between atoms: _92  and  _93
REMARK   35  A    between atoms: _92  and  _95
REMARK   36  A    between atoms: _98  and  _100
REMARK   37  A    between atoms: _100  and  _101
REMARK   38  A    between atoms: _103  and  _105
REMARK   39  A    between atoms: _105  and  _106
REMARK   40  A    between atoms: _105  and  _108
REMARK   41  A    between atoms: _110  and  _112
REMARK   42  A    between atoms: _112  and  _113
REMARK   43  A    between atoms: _115  and  _117
REMARK   44  A    between atoms: _117  and  _118
REMARK   45  A    between atoms: _117  and  _120
REMARK   46  A    between atoms: _120  and  _121
REMARK   47  A    between atoms: _121  and  _122
REMARK   48  A    between atoms: _122  and  _123
REMARK   49  A    between atoms: _123  and  _124
REMARK   50  A    between atoms: _128  and  _130
REMARK   51  A    between atoms: _130  and  _131
REMARK   52  A    between atoms: _130  and  _133
REMARK   53  A    between atoms: _133  and  _134
REMARK   54  A    between atoms: _136  and  _138
REMARK   55  A    between atoms: _138  and  _139
REMARK   56  A    between atoms: _138  and  _141
REMARK   57  A    between atoms: _141  and  _142
REMARK   58  A    between atoms: _144  and  _146
REMARK   59  A    between atoms: _146  and  _147
REMARK   60  A    between atoms: _146  and  _149
REMARK   61  A    between atoms: _149  and  _150
REMARK   62  A    between atoms: _153  and  _155
REMARK   63  A    between atoms: _155  and  _156
REMARK   64  A    between atoms: _155  and  _158
REMARK   65  A    between atoms: _158  and  _159
REMARK   66  A    between atoms: _162  and  _164
REMARK   67  A    between atoms: _164  and  _165
REMARK   68  A    between atoms: _164  and  _167
REMARK   69  A    between atoms: _167  and  _168
REMARK   70  A    between atoms: _170  and  _172
REMARK   71  A    between atoms: _172  and  _173
REMARK   72  A    between atoms: _176  and  _178
REMARK   73  A    between atoms: _178  and  _179
REMARK   74  A    between atoms: _178  and  _181
REMARK   75  A    between atoms: _181  and  _182
REMARK   76  A    between atoms: _182  and  _183
REMARK   77  A    between atoms: _186  and  _188
REMARK   78  A    between atoms: _188  and  _189
REMARK   79  A    between atoms: _188  and  _191
REMARK   80  A    between atoms: _191  and  _192
REMARK   81  A    between atoms: _192  and  _193
REMARK   82  A    between atoms: _195  and  _197
REMARK   83  A    between atoms: _197  and  _198
REMARK   84  A    between atoms: _197  and  _200
REMARK   85  A    between atoms: _200  and  _201
REMARK   86  A    between atoms: _206  and  _207
REMARK   87  A    between atoms: _209  and  _211
REMARK   88  A    between atoms: _211  and  _212
REMARK   89  A    between atoms: _211  and  _214
REMARK   90  A    between atoms: _214  and  _215
REMARK   91  A    between atoms: _215  and  _216
REMARK   92  A    between atoms: _216  and  _217
REMARK   93  A    between atoms: _216  and  _218
REMARK   94  A    between atoms: _217  and  MG_286
REMARK   95  A    between atoms: _221  and  _223
REMARK   96  A    between atoms: _223  and  _224
REMARK   97  A    between atoms: _223  and  _226
REMARK   98  A    between atoms: _226  and  _227
REMARK   99  A    between atoms: _230  and  _232
REMARK  100  A    between atoms: _232  and  _233
REMARK  101  A    between atoms: _232  and  _235
REMARK  102  A    between atoms: _235  and  _236
REMARK  103  A    between atoms: _239  and  _241
REMARK  104  A    between atoms: _241  and  _242
REMARK  105  A    between atoms: _241  and  _244
REMARK  106  A    between atoms: _247  and  _249
REMARK  107  A    between atoms: _249  and  _250
REMARK  108  A    between atoms: _249  and  _252
REMARK  109  A    between atoms: _252  and  _253
REMARK  110  A    between atoms: _256  and  _258
REMARK  111  A    between atoms: _258  and  _259
REMARK  112  A    between atoms: _258  and  _261
REMARK  113  A    between atoms: _261  and  _262
REMARK  114  A    between atoms: _267  and  _269
REMARK  115  A    between atoms: _269  and  _270
REMARK  116  A    between atoms: _269  and  _272
REMARK  117  A    between atoms: _272  and  _273
REMARK  118  A    between atoms: _273  and  _274
REMARK  119  A    between atoms: _276  and  _278
REMARK  120  A    between atoms: _278  and  _279
REMARK  121  A    between atoms: _281  and  _283
REMARK  122  A    between atoms: _283  and  _284
REMARK                            x       y       z     vdW  Elec       q    Type
REMARK                         _______ _______ _______ _____ _____    ______ ____
ROOT
ATOM      1  O   HOH     1     -12.929  49.348   7.288  0.00  0.00    +0.000 OA
ENDROOT
TORSDOF 0
REMARK  Name = ../refined-set-2016/2cbz/2cbz_pocket.pdb
REMARK  122 active torsions:
REMARK  status: ('A' for Active; 'I' for Inactive)
REMARK    1  A    between atoms: _1  and  _3
REMARK    2  A    between atoms: _3  and  _4
REMARK    3  A    between atoms: _3  and  _6
REMARK    4  A    between atoms: _6  and  _7
REMARK    5  A    between atoms: _10  and  _12
REMARK    6  A    between atoms: _12  and  _13
REMARK    7  A    between atoms: _12  and  _15
REMARK    8  A    between atoms: _15  and  _16
REMARK    9  A    between atoms: _26  and  _28
REMARK   10  A    between atoms: _28  and  _29
REMARK   11  A    between atoms: _33  and  _34
REMARK   12  A    between atoms: _39  and  _41
REMARK   13  A    between atoms: _41  and  _42
REMARK   14  A    between atoms: _41  and  _44
REMARK   15  A    between atoms: _44  and  _45
REMARK   16  A    between atoms: _48  and  _50
REMARK   17  A    between atoms: _50  and  _51
REMARK   18  A    between atoms: _50  and  _53
REMARK   19  A    between atoms: _53  and  _54
REMARK   20  A    between atoms: _57  and  _59
REMARK   21  A    between atoms: _59  and  _60
REMARK   22  A    between atoms: _59  and  _62
REMARK   23  A    between atoms: _65  and  _67
REMARK   24  A    between atoms: _67  and  _68
REMARK   25  A    between atoms: _67  and  _70
REMARK   26  A    between atoms: _73  and  _75
REMARK   27  A    between atoms: _75  and  _76
REMARK   28  A    between atoms: _78  and  _80
REMARK   29  A    between atoms: _80  and  _81
REMARK   30  A    between atoms: _80  and  _83
REMARK   31  A    between atoms: _83  and  _84
REMARK   32  A    between atoms: _84  and  _85
REMARK   33  A    between atoms: _90  and  _92
REMARK   34  A    between atoms: _92  and  _93
REMARK   35  A    between atoms: _92  and  _95
REMARK   36  A    between atoms: _98  and  _100
REMARK   37  A    between atoms: _100  and  _101
REMARK   38  A    between atoms: _103  and  _105
REMARK   39  A    between atoms: _105  and  _106
REMARK   40  A    between atoms: _105  and  _108
REMARK   41  A    between atoms: _110  and  _112
REMARK   42  A    between atoms: _112  and  _113
REMARK   43  A    between atoms: _115  and  _117
REMARK   44  A    between atoms: _117  and  _118
REMARK   45  A    between atoms: _117  and  _120
REMARK   46  A    between atoms: _120  and  _121
REMARK   47  A    between atoms: _121  and  _122
REMARK   48  A    between atoms: _122  and  _123
REMARK   49  A    between atoms: _123  and  _124
REMARK   50  A    between atoms: _128  and  _130
REMARK   51  A    between atoms: _130  and  _131
REMARK   52  A    between atoms: _130  and  _133
REMARK   53  A    between atoms: _133  and  _134
REMARK   54  A    between atoms: _136  and  _138
REMARK   55  A    between atoms: _138  and  _139
REMARK   56  A    between atoms: _138  and  _141
REMARK   57  A    between atoms: _141  and  _142
REMARK   58  A    between atoms: _144  and  _146
REMARK   59  A    between atoms: _146  and  _147
REMARK   60  A    between atoms: _146  and  _149
REMARK   61  A    between atoms: _149  and  _150
REMARK   62  A    between atoms: _153  and  _155
REMARK   63  A    between atoms: _155  and  _156
REMARK   64  A    between atoms: _155  and  _158
REMARK   65  A    between atoms: _158  and  _159
REMARK   66  A    between atoms: _162  and  _164
REMARK   67  A    between atoms: _164  and  _165
REMARK   68  A    between atoms: _164  and  _167
REMARK   69  A    between atoms: _167  and  _168
REMARK   70  A    between atoms: _170  and  _172
REMARK   71  A    between atoms: _172  and  _173
REMARK   72  A    between atoms: _176  and  _178
REMARK   73  A    between atoms: _178  and  _179
REMARK   74  A    between atoms: _178  and  _181
REMARK   75  A    between atoms: _181  and  _182
REMARK   76  A    between atoms: _182  and  _183
REMARK   77  A    between atoms: _186  and  _188
REMARK   78  A    between atoms: _188  and  _189
REMARK   79  A    between atoms: _188  and  _191
REMARK   80  A    between atoms: _191  and  _192
REMARK   81  A    between atoms: _192  and  _193
REMARK   82  A    between atoms: _195  and  _197
REMARK   83  A    between atoms: _197  and  _198
REMARK   84  A    between atoms: _197  and  _200
REMARK   85  A    between atoms: _200  and  _201
REMARK   86  A    between atoms: _206  and  _207
REMARK   87  A    between atoms: _209  and  _211
REMARK   88  A    between atoms: _211  and  _212
REMARK   89  A    between atoms: _211  and  _214
REMARK   90  A    between atoms: _214  and  _215
REMARK   91  A    between atoms: _215  and  _216
REMARK   92  A    between atoms: _216  and  _217
REMARK   93  A    between atoms: _216  and  _218
REMARK   94  A    between atoms: _217  and  MG_286
REMARK   95  A    between atoms: _221  and  _223
REMARK   96  A    between atoms: _223  and  _224
REMARK   97  A    between atoms: _223  and  _226
REMARK   98  A    between atoms: _226  and  _227
REMARK   99  A    between atoms: _230  and  _232
REMARK  100  A    between atoms: _232  and  _233
REMARK  101  A    between atoms: _232  and  _235
REMARK  102  A    between atoms: _235  and  _236
REMARK  103  A    between atoms: _239  and  _241
REMARK  104  A    between atoms: _241  and  _242
REMARK  105  A    between atoms: _241  and  _244
REMARK  106  A    between atoms: _247  and  _249
REMARK  107  A    between atoms: _249  and  _250
REMARK  108  A    between atoms: _249  and  _252
REMARK  109  A    between atoms: _252  and  _253
REMARK  110  A    between atoms: _256  and  _258
REMARK  111  A    between atoms: _258  and  _259
REMARK  112  A    between atoms: _258  and  _261
REMARK  113  A    between atoms: _261  and  _262
REMARK  114  A    between atoms: _267  and  _269
REMARK  115  A    between atoms: _269  and  _270
REMARK  116  A    between atoms: _269  and  _272
REMARK  117  A    between atoms: _272  and  _273
REMARK  118  A    between atoms: _273  and  _274
REMARK  119  A    between atoms: _276  and  _278
REMARK  120  A    between atoms: _278  and  _279
REMARK  121  A    between atoms: _281  and  _283
REMARK  122  A    between atoms: _283  and  _284
REMARK                            x       y       z     vdW  Elec       q    Type
REMARK                         _______ _______ _______ _____ _____    ______ ____
ROOT
ATOM      1  O   HOH     1     -17.398  43.713  13.296  0.00  0.00    +0.000 OA
ENDROOT
TORSDOF 0
REMARK  Name = ../refined-set-2016/2cbz/2cbz_pocket.pdb
REMARK  122 active torsions:
REMARK  status: ('A' for Active; 'I' for Inactive)
REMARK    1  A    between atoms: _1  and  _3
REMARK    2  A    between atoms: _3  and  _4
REMARK    3  A    between atoms: _3  and  _6
REMARK    4  A    between atoms: _6  and  _7
REMARK    5  A    between atoms: _10  and  _12
REMARK    6  A    between atoms: _12  and  _13
REMARK    7  A    between atoms: _12  and  _15
REMARK    8  A    between atoms: _15  and  _16
REMARK    9  A    between atoms: _26  and  _28
REMARK   10  A    between atoms: _28  and  _29
REMARK   11  A    between atoms: _33  and  _34
REMARK   12  A    between atoms: _39  and  _41
REMARK   13  A    between atoms: _41  and  _42
REMARK   14  A    between atoms: _41  and  _44
REMARK   15  A    between atoms: _44  and  _45
REMARK   16  A    between atoms: _48  and  _50
REMARK   17  A    between atoms: _50  and  _51
REMARK   18  A    between atoms: _50  and  _53
REMARK   19  A    between atoms: _53  and  _54
REMARK   20  A    between atoms: _57  and  _59
REMARK   21  A    between atoms: _59  and  _60
REMARK   22  A    between atoms: _59  and  _62
REMARK   23  A    between atoms: _65  and  _67
REMARK   24  A    between atoms: _67  and  _68
REMARK   25  A    between atoms: _67  and  _70
REMARK   26  A    between atoms: _73  and  _75
REMARK   27  A    between atoms: _75  and  _76
REMARK   28  A    between atoms: _78  and  _80
REMARK   29  A    between atoms: _80  and  _81
REMARK   30  A    between atoms: _80  and  _83
REMARK   31  A    between atoms: _83  and  _84
REMARK   32  A    between atoms: _84  and  _85
REMARK   33  A    between atoms: _90  and  _92
REMARK   34  A    between atoms: _92  and  _93
REMARK   35  A    between atoms: _92  and  _95
REMARK   36  A    between atoms: _98  and  _100
REMARK   37  A    between atoms: _100  and  _101
REMARK   38  A    between atoms: _103  and  _105
REMARK   39  A    between atoms: _105  and  _106
REMARK   40  A    between atoms: _105  and  _108
REMARK   41  A    between atoms: _110  and  _112
REMARK   42  A    between atoms: _112  and  _113
REMARK   43  A    between atoms: _115  and  _117
REMARK   44  A    between atoms: _117  and  _118
REMARK   45  A    between atoms: _117  and  _120
REMARK   46  A    between atoms: _120  and  _121
REMARK   47  A    between atoms: _121  and  _122
REMARK   48  A    between atoms: _122  and  _123
REMARK   49  A    between atoms: _123  and  _124
REMARK   50  A    between atoms: _128  and  _130
REMARK   51  A    between atoms: _130  and  _131
REMARK   52  A    between atoms: _130  and  _133
REMARK   53  A    between atoms: _133  and  _134
REMARK   54  A    between atoms: _136  and  _138
REMARK   55  A    between atoms: _138  and  _139
REMARK   56  A    between atoms: _138  and  _141
REMARK   57  A    between atoms: _141  and  _142
REMARK   58  A    between atoms: _144  and  _146
REMARK   59  A    between atoms: _146  and  _147
REMARK   60  A    between atoms: _146  and  _149
REMARK   61  A    between atoms: _149  and  _150
REMARK   62  A    between atoms: _153  and  _155
REMARK   63  A    between atoms: _155  and  _156
REMARK   64  A    between atoms: _155  and  _158
REMARK   65  A    between atoms: _158  and  _159
REMARK   66  A    between atoms: _162  and  _164
REMARK   67  A    between atoms: _164  and  _165
REMARK   68  A    between atoms: _164  and  _167
REMARK   69  A    between atoms: _167  and  _168
REMARK   70  A    between atoms: _170  and  _172
REMARK   71  A    between atoms: _172  and  _173
REMARK   72  A    between atoms: _176  and  _178
REMARK   73  A    between atoms: _178  and  _179
REMARK   74  A    between atoms: _178  and  _181
REMARK   75  A    between atoms: _181  and  _182
REMARK   76  A    between atoms: _182  and  _183
REMARK   77  A    between atoms: _186  and  _188
REMARK   78  A    between atoms: _188  and  _189
REMARK   79  A    between atoms: _188  and  _191
REMARK   80  A    between atoms: _191  and  _192
REMARK   81  A    between atoms: _192  and  _193
REMARK   82  A    between atoms: _195  and  _197
REMARK   83  A    between atoms: _197  and  _198
REMARK   84  A    between atoms: _197  and  _200
REMARK   85  A    between atoms: _200  and  _201
REMARK   86  A    between atoms: _206  and  _207
REMARK   87  A    between atoms: _209  and  _211
REMARK   88  A    between atoms: _211  and  _212
REMARK   89  A    between atoms: _211  and  _214
REMARK   90  A    between atoms: _214  and  _215
REMARK   91  A    between atoms: _215  and  _216
REMARK   92  A    between atoms: _216  and  _217
REMARK   93  A    between atoms: _216  and  _218
REMARK   94  A    between atoms: _217  and  MG_286
REMARK   95  A    between atoms: _221  and  _223
REMARK   96  A    between atoms: _223  and  _224
REMARK   97  A    between atoms: _223  and  _226
REMARK   98  A    between atoms: _226  and  _227
REMARK   99  A    between atoms: _230  and  _232
REMARK  100  A    between atoms: _232  and  _233
REMARK  101  A    between atoms: _232  and  _235
REMARK  102  A    between atoms: _235  and  _236
REMARK  103  A    between atoms: _239  and  _241
REMARK  104  A    between atoms: _241  and  _242
REMARK  105  A    between atoms: _241  and  _244
REMARK  106  A    between atoms: _247  and  _249
REMARK  107  A    between atoms: _249  and  _250
REMARK  108  A    between atoms: _249  and  _252
REMARK  109  A    between atoms: _252  and  _253
REMARK  110  A    between atoms: _256  and  _258
REMARK  111  A    between atoms: _258  and  _259
REMARK  112  A    between atoms: _258  and  _261
REMARK  113  A    between atoms: _261  and  _262
REMARK  114  A    between atoms: _267  and  _269
REMARK  115  A    between atoms: _269  and  _270
REMARK  116  A    between atoms: _269  and  _272
REMARK  117  A    between atoms: _272  and  _273
REMARK  118  A    between atoms: _273  and  _274
REMARK  119  A    between atoms: _276  and  _278
REMARK  120  A    between atoms: _278  and  _279
REMARK  121  A    between atoms: _281  and  _283
REMARK  122  A    between atoms: _283  and  _284
REMARK                            x       y       z     vdW  Elec       q    Type
REMARK                         _______ _______ _______ _____ _____    ______ ____
ROOT
ATOM      1  O   HOH     1     -15.443  44.968   5.936  0.00  0.00    +0.000 OA
ENDROOT
TORSDOF 0
REMARK  Name = ../refined-set-2016/2cbz/2cbz_pocket.pdb
REMARK  122 active torsions:
REMARK  status: ('A' for Active; 'I' for Inactive)
REMARK    1  A    between atoms: _1  and  _3
REMARK    2  A    between atoms: _3  and  _4
REMARK    3  A    between atoms: _3  and  _6
REMARK    4  A    between atoms: _6  and  _7
REMARK    5  A    between atoms: _10  and  _12
REMARK    6  A    between atoms: _12  and  _13
REMARK    7  A    between atoms: _12  and  _15
REMARK    8  A    between atoms: _15  and  _16
REMARK    9  A    between atoms: _26  and  _28
REMARK   10  A    between atoms: _28  and  _29
REMARK   11  A    between atoms: _33  and  _34
REMARK   12  A    between atoms: _39  and  _41
REMARK   13  A    between atoms: _41  and  _42
REMARK   14  A    between atoms: _41  and  _44
REMARK   15  A    between atoms: _44  and  _45
REMARK   16  A    between atoms: _48  and  _50
REMARK   17  A    between atoms: _50  and  _51
REMARK   18  A    between atoms: _50  and  _53
REMARK   19  A    between atoms: _53  and  _54
REMARK   20  A    between atoms: _57  and  _59
REMARK   21  A    between atoms: _59  and  _60
REMARK   22  A    between atoms: _59  and  _62
REMARK   23  A    between atoms: _65  and  _67
REMARK   24  A    between atoms: _67  and  _68
REMARK   25  A    between atoms: _67  and  _70
REMARK   26  A    between atoms: _73  and  _75
REMARK   27  A    between atoms: _75  and  _76
REMARK   28  A    between atoms: _78  and  _80
REMARK   29  A    between atoms: _80  and  _81
REMARK   30  A    between atoms: _80  and  _83
REMARK   31  A    between atoms: _83  and  _84
REMARK   32  A    between atoms: _84  and  _85
REMARK   33  A    between atoms: _90  and  _92
REMARK   34  A    between atoms: _92  and  _93
REMARK   35  A    between atoms: _92  and  _95
REMARK   36  A    between atoms: _98  and  _100
REMARK   37  A    between atoms: _100  and  _101
REMARK   38  A    between atoms: _103  and  _105
REMARK   39  A    between atoms: _105  and  _106
REMARK   40  A    between atoms: _105  and  _108
REMARK   41  A    between atoms: _110  and  _112
REMARK   42  A    between atoms: _112  and  _113
REMARK   43  A    between atoms: _115  and  _117
REMARK   44  A    between atoms: _117  and  _118
REMARK   45  A    between atoms: _117  and  _120
REMARK   46  A    between atoms: _120  and  _121
REMARK   47  A    between atoms: _121  and  _122
REMARK   48  A    between atoms: _122  and  _123
REMARK   49  A    between atoms: _123  and  _124
REMARK   50  A    between atoms: _128  and  _130
REMARK   51  A    between atoms: _130  and  _131
REMARK   52  A    between atoms: _130  and  _133
REMARK   53  A    between atoms: _133  and  _134
REMARK   54  A    between atoms: _136  and  _138
REMARK   55  A    between atoms: _138  and  _139
REMARK   56  A    between atoms: _138  and  _141
REMARK   57  A    between atoms: _141  and  _142
REMARK   58  A    between atoms: _144  and  _146
REMARK   59  A    between atoms: _146  and  _147
REMARK   60  A    between atoms: _146  and  _149
REMARK   61  A    between atoms: _149  and  _150
REMARK   62  A    between atoms: _153  and  _155
REMARK   63  A    between atoms: _155  and  _156
REMARK   64  A    between atoms: _155  and  _158
REMARK   65  A    between atoms: _158  and  _159
REMARK   66  A    between atoms: _162  and  _164
REMARK   67  A    between atoms: _164  and  _165
REMARK   68  A    between atoms: _164  and  _167
REMARK   69  A    between atoms: _167  and  _168
REMARK   70  A    between atoms: _170  and  _172
REMARK   71  A    between atoms: _172  and  _173
REMARK   72  A    between atoms: _176  and  _178
REMARK   73  A    between atoms: _178  and  _179
REMARK   74  A    between atoms: _178  and  _181
REMARK   75  A    between atoms: _181  and  _182
REMARK   76  A    between atoms: _182  and  _183
REMARK   77  A    between atoms: _186  and  _188
REMARK   78  A    between atoms: _188  and  _189
REMARK   79  A    between atoms: _188  and  _191
REMARK   80  A    between atoms: _191  and  _192
REMARK   81  A    between atoms: _192  and  _193
REMARK   82  A    between atoms: _195  and  _197
REMARK   83  A    between atoms: _197  and  _198
REMARK   84  A    between atoms: _197  and  _200
REMARK   85  A    between atoms: _200  and  _201
REMARK   86  A    between atoms: _206  and  _207
REMARK   87  A    between atoms: _209  and  _211
REMARK   88  A    between atoms: _211  and  _212
REMARK   89  A    between atoms: _211  and  _214
REMARK   90  A    between atoms: _214  and  _215
REMARK   91  A    between atoms: _215  and  _216
REMARK   92  A    between atoms: _216  and  _217
REMARK   93  A    between atoms: _216  and  _218
REMARK   94  A    between atoms: _217  and  MG_286
REMARK   95  A    between atoms: _221  and  _223
REMARK   96  A    between atoms: _223  and  _224
REMARK   97  A    between atoms: _223  and  _226
REMARK   98  A    between atoms: _226  and  _227
REMARK   99  A    between atoms: _230  and  _232
REMARK  100  A    between atoms: _232  and  _233
REMARK  101  A    between atoms: _232  and  _235
REMARK  102  A    between atoms: _235  and  _236
REMARK  103  A    between atoms: _239  and  _241
REMARK  104  A    between atoms: _241  and  _242
REMARK  105  A    between atoms: _241  and  _244
REMARK  106  A    between atoms: _247  and  _249
REMARK  107  A    between atoms: _249  and  _250
REMARK  108  A    between atoms: _249  and  _252
REMARK  109  A    between atoms: _252  and  _253
REMARK  110  A    between atoms: _256  and  _258
REMARK  111  A    between atoms: _258  and  _259
REMARK  112  A    between atoms: _258  and  _261
REMARK  113  A    between atoms: _261  and  _262
REMARK  114  A    between atoms: _267  and  _269
REMARK  115  A    between atoms: _269  and  _270
REMARK  116  A    between atoms: _269  and  _272
REMARK  117  A    between atoms: _272  and  _273
REMARK  118  A    between atoms: _273  and  _274
REMARK  119  A    between atoms: _276  and  _278
REMARK  120  A    between atoms: _278  and  _279
REMARK  121  A    between atoms: _281  and  _283
REMARK  122  A    between atoms: _283  and  _284
REMARK                            x       y       z     vdW  Elec       q    Type
REMARK                         _______ _______ _______ _____ _____    ______ ____
ROOT
ATOM      1  O   HOH     1     -12.662  46.101   7.832  0.00  0.00    +0.000 OA
ENDROOT
TORSDOF 0
REMARK  Name = ../refined-set-2016/2cbz/2cbz_pocket.pdb
REMARK  122 active torsions:
REMARK  status: ('A' for Active; 'I' for Inactive)
REMARK    1  A    between atoms: _1  and  _3
REMARK    2  A    between atoms: _3  and  _4
REMARK    3  A    between atoms: _3  and  _6
REMARK    4  A    between atoms: _6  and  _7
REMARK    5  A    between atoms: _10  and  _12
REMARK    6  A    between atoms: _12  and  _13
REMARK    7  A    between atoms: _12  and  _15
REMARK    8  A    between atoms: _15  and  _16
REMARK    9  A    between atoms: _26  and  _28
REMARK   10  A    between atoms: _28  and  _29
REMARK   11  A    between atoms: _33  and  _34
REMARK   12  A    between atoms: _39  and  _41
REMARK   13  A    between atoms: _41  and  _42
REMARK   14  A    between atoms: _41  and  _44
REMARK   15  A    between atoms: _44  and  _45
REMARK   16  A    between atoms: _48  and  _50
REMARK   17  A    between atoms: _50  and  _51
REMARK   18  A    between atoms: _50  and  _53
REMARK   19  A    between atoms: _53  and  _54
REMARK   20  A    between atoms: _57  and  _59
REMARK   21  A    between atoms: _59  and  _60
REMARK   22  A    between atoms: _59  and  _62
REMARK   23  A    between atoms: _65  and  _67
REMARK   24  A    between atoms: _67  and  _68
REMARK   25  A    between atoms: _67  and  _70
REMARK   26  A    between atoms: _73  and  _75
REMARK   27  A    between atoms: _75  and  _76
REMARK   28  A    between atoms: _78  and  _80
REMARK   29  A    between atoms: _80  and  _81
REMARK   30  A    between atoms: _80  and  _83
REMARK   31  A    between atoms: _83  and  _84
REMARK   32  A    between atoms: _84  and  _85
REMARK   33  A    between atoms: _90  and  _92
REMARK   34  A    between atoms: _92  and  _93
REMARK   35  A    between atoms: _92  and  _95
REMARK   36  A    between atoms: _98  and  _100
REMARK   37  A    between atoms: _100  and  _101
REMARK   38  A    between atoms: _103  and  _105
REMARK   39  A    between atoms: _105  and  _106
REMARK   40  A    between atoms: _105  and  _108
REMARK   41  A    between atoms: _110  and  _112
REMARK   42  A    between atoms: _112  and  _113
REMARK   43  A    between atoms: _115  and  _117
REMARK   44  A    between atoms: _117  and  _118
REMARK   45  A    between atoms: _117  and  _120
REMARK   46  A    between atoms: _120  and  _121
REMARK   47  A    between atoms: _121  and  _122
REMARK   48  A    between atoms: _122  and  _123
REMARK   49  A    between atoms: _123  and  _124
REMARK   50  A    between atoms: _128  and  _130
REMARK   51  A    between atoms: _130  and  _131
REMARK   52  A    between atoms: _130  and  _133
REMARK   53  A    between atoms: _133  and  _134
REMARK   54  A    between atoms: _136  and  _138
REMARK   55  A    between atoms: _138  and  _139
REMARK   56  A    between atoms: _138  and  _141
REMARK   57  A    between atoms: _141  and  _142
REMARK   58  A    between atoms: _144  and  _146
REMARK   59  A    between atoms: _146  and  _147
REMARK   60  A    between atoms: _146  and  _149
REMARK   61  A    between atoms: _149  and  _150
REMARK   62  A    between atoms: _153  and  _155
REMARK   63  A    between atoms: _155  and  _156
REMARK   64  A    between atoms: _155  and  _158
REMARK   65  A    between atoms: _158  and  _159
REMARK   66  A    between atoms: _162  and  _164
REMARK   67  A    between atoms: _164  and  _165
REMARK   68  A    between atoms: _164  and  _167
REMARK   69  A    between atoms: _167  and  _168
REMARK   70  A    between atoms: _170  and  _172
REMARK   71  A    between atoms: _172  and  _173
REMARK   72  A    between atoms: _176  and  _178
REMARK   73  A    between atoms: _178  and  _179
REMARK   74  A    between atoms: _178  and  _181
REMARK   75  A    between atoms: _181  and  _182
REMARK   76  A    between atoms: _182  and  _183
REMARK   77  A    between atoms: _186  and  _188
REMARK   78  A    between atoms: _188  and  _189
REMARK   79  A    between atoms: _188  and  _191
REMARK   80  A    between atoms: _191  and  _192
REMARK   81  A    between atoms: _192  and  _193
REMARK   82  A    between atoms: _195  and  _197
REMARK   83  A    between atoms: _197  and  _198
REMARK   84  A    between atoms: _197  and  _200
REMARK   85  A    between atoms: _200  and  _201
REMARK   86  A    between atoms: _206  and  _207
REMARK   87  A    between atoms: _209  and  _211
REMARK   88  A    between atoms: _211  and  _212
REMARK   89  A    between atoms: _211  and  _214
REMARK   90  A    between atoms: _214  and  _215
REMARK   91  A    between atoms: _215  and  _216
REMARK   92  A    between atoms: _216  and  _217
REMARK   93  A    between atoms: _216  and  _218
REMARK   94  A    between atoms: _217  and  MG_286
REMARK   95  A    between atoms: _221  and  _223
REMARK   96  A    between atoms: _223  and  _224
REMARK   97  A    between atoms: _223  and  _226
REMARK   98  A    between atoms: _226  and  _227
REMARK   99  A    between atoms: _230  and  _232
REMARK  100  A    between atoms: _232  and  _233
REMARK  101  A    between atoms: _232  and  _235
REMARK  102  A    between atoms: _235  and  _236
REMARK  103  A    between atoms: _239  and  _241
REMARK  104  A    between atoms: _241  and  _242
REMARK  105  A    between atoms: _241  and  _244
REMARK  106  A    between atoms: _247  and  _249
REMARK  107  A    between atoms: _249  and  _250
REMARK  108  A    between atoms: _249  and  _252
REMARK  109  A    between atoms: _252  and  _253
REMARK  110  A    between atoms: _256  and  _258
REMARK  111  A    between atoms: _258  and  _259
REMARK  112  A    between atoms: _258  and  _261
REMARK  113  A    between atoms: _261  and  _262
REMARK  114  A    between atoms: _267  and  _269
REMARK  115  A    between atoms: _269  and  _270
REMARK  116  A    between atoms: _269  and  _272
REMARK  117  A    between atoms: _272  and  _273
REMARK  118  A    between atoms: _273  and  _274
REMARK  119  A    between atoms: _276  and  _278
REMARK  120  A    between atoms: _278  and  _279
REMARK  121  A    between atoms: _281  and  _283
REMARK  122  A    between atoms: _283  and  _284
REMARK                            x       y       z     vdW  Elec       q    Type
REMARK                         _______ _______ _______ _____ _____    ______ ____
ROOT
ATOM      1  O   HOH     1     -19.751  43.745  11.799  0.00  0.00    +0.000 OA
ENDROOT
TORSDOF 0
REMARK  Name = ../refined-set-2016/2cbz/2cbz_pocket.pdb
REMARK  122 active torsions:
REMARK  status: ('A' for Active; 'I' for Inactive)
REMARK    1  A    between atoms: _1  and  _3
REMARK    2  A    between atoms: _3  and  _4
REMARK    3  A    between atoms: _3  and  _6
REMARK    4  A    between atoms: _6  and  _7
REMARK    5  A    between atoms: _10  and  _12
REMARK    6  A    between atoms: _12  and  _13
REMARK    7  A    between atoms: _12  and  _15
REMARK    8  A    between atoms: _15  and  _16
REMARK    9  A    between atoms: _26  and  _28
REMARK   10  A    between atoms: _28  and  _29
REMARK   11  A    between atoms: _33  and  _34
REMARK   12  A    between atoms: _39  and  _41
REMARK   13  A    between atoms: _41  and  _42
REMARK   14  A    between atoms: _41  and  _44
REMARK   15  A    between atoms: _44  and  _45
REMARK   16  A    between atoms: _48  and  _50
REMARK   17  A    between atoms: _50  and  _51
REMARK   18  A    between atoms: _50  and  _53
REMARK   19  A    between atoms: _53  and  _54
REMARK   20  A    between atoms: _57  and  _59
REMARK   21  A    between atoms: _59  and  _60
REMARK   22  A    between atoms: _59  and  _62
REMARK   23  A    between atoms: _65  and  _67
REMARK   24  A    between atoms: _67  and  _68
REMARK   25  A    between atoms: _67  and  _70
REMARK   26  A    between atoms: _73  and  _75
REMARK   27  A    between atoms: _75  and  _76
REMARK   28  A    between atoms: _78  and  _80
REMARK   29  A    between atoms: _80  and  _81
REMARK   30  A    between atoms: _80  and  _83
REMARK   31  A    between atoms: _83  and  _84
REMARK   32  A    between atoms: _84  and  _85
REMARK   33  A    between atoms: _90  and  _92
REMARK   34  A    between atoms: _92  and  _93
REMARK   35  A    between atoms: _92  and  _95
REMARK   36  A    between atoms: _98  and  _100
REMARK   37  A    between atoms: _100  and  _101
REMARK   38  A    between atoms: _103  and  _105
REMARK   39  A    between atoms: _105  and  _106
REMARK   40  A    between atoms: _105  and  _108
REMARK   41  A    between atoms: _110  and  _112
REMARK   42  A    between atoms: _112  and  _113
REMARK   43  A    between atoms: _115  and  _117
REMARK   44  A    between atoms: _117  and  _118
REMARK   45  A    between atoms: _117  and  _120
REMARK   46  A    between atoms: _120  and  _121
REMARK   47  A    between atoms: _121  and  _122
REMARK   48  A    between atoms: _122  and  _123
REMARK   49  A    between atoms: _123  and  _124
REMARK   50  A    between atoms: _128  and  _130
REMARK   51  A    between atoms: _130  and  _131
REMARK   52  A    between atoms: _130  and  _133
REMARK   53  A    between atoms: _133  and  _134
REMARK   54  A    between atoms: _136  and  _138
REMARK   55  A    between atoms: _138  and  _139
REMARK   56  A    between atoms: _138  and  _141
REMARK   57  A    between atoms: _141  and  _142
REMARK   58  A    between atoms: _144  and  _146
REMARK   59  A    between atoms: _146  and  _147
REMARK   60  A    between atoms: _146  and  _149
REMARK   61  A    between atoms: _149  and  _150
REMARK   62  A    between atoms: _153  and  _155
REMARK   63  A    between atoms: _155  and  _156
REMARK   64  A    between atoms: _155  and  _158
REMARK   65  A    between atoms: _158  and  _159
REMARK   66  A    between atoms: _162  and  _164
REMARK   67  A    between atoms: _164  and  _165
REMARK   68  A    between atoms: _164  and  _167
REMARK   69  A    between atoms: _167  and  _168
REMARK   70  A    between atoms: _170  and  _172
REMARK   71  A    between atoms: _172  and  _173
REMARK   72  A    between atoms: _176  and  _178
REMARK   73  A    between atoms: _178  and  _179
REMARK   74  A    between atoms: _178  and  _181
REMARK   75  A    between atoms: _181  and  _182
REMARK   76  A    between atoms: _182  and  _183
REMARK   77  A    between atoms: _186  and  _188
REMARK   78  A    between atoms: _188  and  _189
REMARK   79  A    between atoms: _188  and  _191
REMARK   80  A    between atoms: _191  and  _192
REMARK   81  A    between atoms: _192  and  _193
REMARK   82  A    between atoms: _195  and  _197
REMARK   83  A    between atoms: _197  and  _198
REMARK   84  A    between atoms: _197  and  _200
REMARK   85  A    between atoms: _200  and  _201
REMARK   86  A    between atoms: _206  and  _207
REMARK   87  A    between atoms: _209  and  _211
REMARK   88  A    between atoms: _211  and  _212
REMARK   89  A    between atoms: _211  and  _214
REMARK   90  A    between atoms: _214  and  _215
REMARK   91  A    between atoms: _215  and  _216
REMARK   92  A    between atoms: _216  and  _217
REMARK   93  A    between atoms: _216  and  _218
REMARK   94  A    between atoms: _217  and  MG_286
REMARK   95  A    between atoms: _221  and  _223
REMARK   96  A    between atoms: _223  and  _224
REMARK   97  A    between atoms: _223  and  _226
REMARK   98  A    between atoms: _226  and  _227
REMARK   99  A    between atoms: _230  and  _232
REMARK  100  A    between atoms: _232  and  _233
REMARK  101  A    between atoms: _232  and  _235
REMARK  102  A    between atoms: _235  and  _236
REMARK  103  A    between atoms: _239  and  _241
REMARK  104  A    between atoms: _241  and  _242
REMARK  105  A    between atoms: _241  and  _244
REMARK  106  A    between atoms: _247  and  _249
REMARK  107  A    between atoms: _249  and  _250
REMARK  108  A    between atoms: _249  and  _252
REMARK  109  A    between atoms: _252  and  _253
REMARK  110  A    between atoms: _256  and  _258
REMARK  111  A    between atoms: _258  and  _259
REMARK  112  A    between atoms: _258  and  _261
REMARK  113  A    between atoms: _261  and  _262
REMARK  114  A    between atoms: _267  and  _269
REMARK  115  A    between atoms: _269  and  _270
REMARK  116  A    between atoms: _269  and  _272
REMARK  117  A    between atoms: _272  and  _273
REMARK  118  A    between atoms: _273  and  _274
REMARK  119  A    between atoms: _276  and  _278
REMARK  120  A    between atoms: _278  and  _279
REMARK  121  A    between atoms: _281  and  _283
REMARK  122  A    between atoms: _283  and  _284
REMARK                            x       y       z     vdW  Elec       q    Type
REMARK                         _______ _______ _______ _____ _____    ______ ____
ROOT
ATOM      1  O   HOH     1     -20.876  47.722  10.406  0.00  0.00    +0.000 OA
ENDROOT
TORSDOF 0
REMARK  Name = ../refined-set-2016/2cbz/2cbz_pocket.pdb
REMARK  122 active torsions:
REMARK  status: ('A' for Active; 'I' for Inactive)
REMARK    1  A    between atoms: _1  and  _3
REMARK    2  A    between atoms: _3  and  _4
REMARK    3  A    between atoms: _3  and  _6
REMARK    4  A    between atoms: _6  and  _7
REMARK    5  A    between atoms: _10  and  _12
REMARK    6  A    between atoms: _12  and  _13
REMARK    7  A    between atoms: _12  and  _15
REMARK    8  A    between atoms: _15  and  _16
REMARK    9  A    between atoms: _26  and  _28
REMARK   10  A    between atoms: _28  and  _29
REMARK   11  A    between atoms: _33  and  _34
REMARK   12  A    between atoms: _39  and  _41
REMARK   13  A    between atoms: _41  and  _42
REMARK   14  A    between atoms: _41  and  _44
REMARK   15  A    between atoms: _44  and  _45
REMARK   16  A    between atoms: _48  and  _50
REMARK   17  A    between atoms: _50  and  _51
REMARK   18  A    between atoms: _50  and  _53
REMARK   19  A    between atoms: _53  and  _54
REMARK   20  A    between atoms: _57  and  _59
REMARK   21  A    between atoms: _59  and  _60
REMARK   22  A    between atoms: _59  and  _62
REMARK   23  A    between atoms: _65  and  _67
REMARK   24  A    between atoms: _67  and  _68
REMARK   25  A    between atoms: _67  and  _70
REMARK   26  A    between atoms: _73  and  _75
REMARK   27  A    between atoms: _75  and  _76
REMARK   28  A    between atoms: _78  and  _80
REMARK   29  A    between atoms: _80  and  _81
REMARK   30  A    between atoms: _80  and  _83
REMARK   31  A    between atoms: _83  and  _84
REMARK   32  A    between atoms: _84  and  _85
REMARK   33  A    between atoms: _90  and  _92
REMARK   34  A    between atoms: _92  and  _93
REMARK   35  A    between atoms: _92  and  _95
REMARK   36  A    between atoms: _98  and  _100
REMARK   37  A    between atoms: _100  and  _101
REMARK   38  A    between atoms: _103  and  _105
REMARK   39  A    between atoms: _105  and  _106
REMARK   40  A    between atoms: _105  and  _108
REMARK   41  A    between atoms: _110  and  _112
REMARK   42  A    between atoms: _112  and  _113
REMARK   43  A    between atoms: _115  and  _117
REMARK   44  A    between atoms: _117  and  _118
REMARK   45  A    between atoms: _117  and  _120
REMARK   46  A    between atoms: _120  and  _121
REMARK   47  A    between atoms: _121  and  _122
REMARK   48  A    between atoms: _122  and  _123
REMARK   49  A    between atoms: _123  and  _124
REMARK   50  A    between atoms: _128  and  _130
REMARK   51  A    between atoms: _130  and  _131
REMARK   52  A    between atoms: _130  and  _133
REMARK   53  A    between atoms: _133  and  _134
REMARK   54  A    between atoms: _136  and  _138
REMARK   55  A    between atoms: _138  and  _139
REMARK   56  A    between atoms: _138  and  _141
REMARK   57  A    between atoms: _141  and  _142
REMARK   58  A    between atoms: _144  and  _146
REMARK   59  A    between atoms: _146  and  _147
REMARK   60  A    between atoms: _146  and  _149
REMARK   61  A    between atoms: _149  and  _150
REMARK   62  A    between atoms: _153  and  _155
REMARK   63  A    between atoms: _155  and  _156
REMARK   64  A    between atoms: _155  and  _158
REMARK   65  A    between atoms: _158  and  _159
REMARK   66  A    between atoms: _162  and  _164
REMARK   67  A    between atoms: _164  and  _165
REMARK   68  A    between atoms: _164  and  _167
REMARK   69  A    between atoms: _167  and  _168
REMARK   70  A    between atoms: _170  and  _172
REMARK   71  A    between atoms: _172  and  _173
REMARK   72  A    between atoms: _176  and  _178
REMARK   73  A    between atoms: _178  and  _179
REMARK   74  A    between atoms: _178  and  _181
REMARK   75  A    between atoms: _181  and  _182
REMARK   76  A    between atoms: _182  and  _183
REMARK   77  A    between atoms: _186  and  _188
REMARK   78  A    between atoms: _188  and  _189
REMARK   79  A    between atoms: _188  and  _191
REMARK   80  A    between atoms: _191  and  _192
REMARK   81  A    between atoms: _192  and  _193
REMARK   82  A    between atoms: _195  and  _197
REMARK   83  A    between atoms: _197  and  _198
REMARK   84  A    between atoms: _197  and  _200
REMARK   85  A    between atoms: _200  and  _201
REMARK   86  A    between atoms: _206  and  _207
REMARK   87  A    between atoms: _209  and  _211
REMARK   88  A    between atoms: _211  and  _212
REMARK   89  A    between atoms: _211  and  _214
REMARK   90  A    between atoms: _214  and  _215
REMARK   91  A    between atoms: _215  and  _216
REMARK   92  A    between atoms: _216  and  _217
REMARK   93  A    between atoms: _216  and  _218
REMARK   94  A    between atoms: _217  and  MG_286
REMARK   95  A    between atoms: _221  and  _223
REMARK   96  A    between atoms: _223  and  _224
REMARK   97  A    between atoms: _223  and  _226
REMARK   98  A    between atoms: _226  and  _227
REMARK   99  A    between atoms: _230  and  _232
REMARK  100  A    between atoms: _232  and  _233
REMARK  101  A    between atoms: _232  and  _235
REMARK  102  A    between atoms: _235  and  _236
REMARK  103  A    between atoms: _239  and  _241
REMARK  104  A    between atoms: _241  and  _242
REMARK  105  A    between atoms: _241  and  _244
REMARK  106  A    between atoms: _247  and  _249
REMARK  107  A    between atoms: _249  and  _250
REMARK  108  A    between atoms: _249  and  _252
REMARK  109  A    between atoms: _252  and  _253
REMARK  110  A    between atoms: _256  and  _258
REMARK  111  A    between atoms: _258  and  _259
REMARK  112  A    between atoms: _258  and  _261
REMARK  113  A    between atoms: _261  and  _262
REMARK  114  A    between atoms: _267  and  _269
REMARK  115  A    between atoms: _269  and  _270
REMARK  116  A    between atoms: _269  and  _272
REMARK  117  A    between atoms: _272  and  _273
REMARK  118  A    between atoms: _273  and  _274
REMARK  119  A    between atoms: _276  and  _278
REMARK  120  A    between atoms: _278  and  _279
REMARK  121  A    between atoms: _281  and  _283
REMARK  122  A    between atoms: _283  and  _284
REMARK                            x       y       z     vdW  Elec       q    Type
REMARK                         _______ _______ _______ _____ _____    ______ ____
ROOT
ATOM      1  O   HOH     1     -24.417  51.407  10.792  0.00  0.00    +0.000 OA
ENDROOT
TORSDOF 0
REMARK  Name = ../refined-set-2016/2cbz/2cbz_pocket.pdb
REMARK  122 active torsions:
REMARK  status: ('A' for Active; 'I' for Inactive)
REMARK    1  A    between atoms: _1  and  _3
REMARK    2  A    between atoms: _3  and  _4
REMARK    3  A    between atoms: _3  and  _6
REMARK    4  A    between atoms: _6  and  _7
REMARK    5  A    between atoms: _10  and  _12
REMARK    6  A    between atoms: _12  and  _13
REMARK    7  A    between atoms: _12  and  _15
REMARK    8  A    between atoms: _15  and  _16
REMARK    9  A    between atoms: _26  and  _28
REMARK   10  A    between atoms: _28  and  _29
REMARK   11  A    between atoms: _33  and  _34
REMARK   12  A    between atoms: _39  and  _41
REMARK   13  A    between atoms: _41  and  _42
REMARK   14  A    between atoms: _41  and  _44
REMARK   15  A    between atoms: _44  and  _45
REMARK   16  A    between atoms: _48  and  _50
REMARK   17  A    between atoms: _50  and  _51
REMARK   18  A    between atoms: _50  and  _53
REMARK   19  A    between atoms: _53  and  _54
REMARK   20  A    between atoms: _57  and  _59
REMARK   21  A    between atoms: _59  and  _60
REMARK   22  A    between atoms: _59  and  _62
REMARK   23  A    between atoms: _65  and  _67
REMARK   24  A    between atoms: _67  and  _68
REMARK   25  A    between atoms: _67  and  _70
REMARK   26  A    between atoms: _73  and  _75
REMARK   27  A    between atoms: _75  and  _76
REMARK   28  A    between atoms: _78  and  _80
REMARK   29  A    between atoms: _80  and  _81
REMARK   30  A    between atoms: _80  and  _83
REMARK   31  A    between atoms: _83  and  _84
REMARK   32  A    between atoms: _84  and  _85
REMARK   33  A    between atoms: _90  and  _92
REMARK   34  A    between atoms: _92  and  _93
REMARK   35  A    between atoms: _92  and  _95
REMARK   36  A    between atoms: _98  and  _100
REMARK   37  A    between atoms: _100  and  _101
REMARK   38  A    between atoms: _103  and  _105
REMARK   39  A    between atoms: _105  and  _106
REMARK   40  A    between atoms: _105  and  _108
REMARK   41  A    between atoms: _110  and  _112
REMARK   42  A    between atoms: _112  and  _113
REMARK   43  A    between atoms: _115  and  _117
REMARK   44  A    between atoms: _117  and  _118
REMARK   45  A    between atoms: _117  and  _120
REMARK   46  A    between atoms: _120  and  _121
REMARK   47  A    between atoms: _121  and  _122
REMARK   48  A    between atoms: _122  and  _123
REMARK   49  A    between atoms: _123  and  _124
REMARK   50  A    between atoms: _128  and  _130
REMARK   51  A    between atoms: _130  and  _131
REMARK   52  A    between atoms: _130  and  _133
REMARK   53  A    between atoms: _133  and  _134
REMARK   54  A    between atoms: _136  and  _138
REMARK   55  A    between atoms: _138  and  _139
REMARK   56  A    between atoms: _138  and  _141
REMARK   57  A    between atoms: _141  and  _142
REMARK   58  A    between atoms: _144  and  _146
REMARK   59  A    between atoms: _146  and  _147
REMARK   60  A    between atoms: _146  and  _149
REMARK   61  A    between atoms: _149  and  _150
REMARK   62  A    between atoms: _153  and  _155
REMARK   63  A    between atoms: _155  and  _156
REMARK   64  A    between atoms: _155  and  _158
REMARK   65  A    between atoms: _158  and  _159
REMARK   66  A    between atoms: _162  and  _164
REMARK   67  A    between atoms: _164  and  _165
REMARK   68  A    between atoms: _164  and  _167
REMARK   69  A    between atoms: _167  and  _168
REMARK   70  A    between atoms: _170  and  _172
REMARK   71  A    between atoms: _172  and  _173
REMARK   72  A    between atoms: _176  and  _178
REMARK   73  A    between atoms: _178  and  _179
REMARK   74  A    between atoms: _178  and  _181
REMARK   75  A    between atoms: _181  and  _182
REMARK   76  A    between atoms: _182  and  _183
REMARK   77  A    between atoms: _186  and  _188
REMARK   78  A    between atoms: _188  and  _189
REMARK   79  A    between atoms: _188  and  _191
REMARK   80  A    between atoms: _191  and  _192
REMARK   81  A    between atoms: _192  and  _193
REMARK   82  A    between atoms: _195  and  _197
REMARK   83  A    between atoms: _197  and  _198
REMARK   84  A    between atoms: _197  and  _200
REMARK   85  A    between atoms: _200  and  _201
REMARK   86  A    between atoms: _206  and  _207
REMARK   87  A    between atoms: _209  and  _211
REMARK   88  A    between atoms: _211  and  _212
REMARK   89  A    between atoms: _211  and  _214
REMARK   90  A    between atoms: _214  and  _215
REMARK   91  A    between atoms: _215  and  _216
REMARK   92  A    between atoms: _216  and  _217
REMARK   93  A    between atoms: _216  and  _218
REMARK   94  A    between atoms: _217  and  MG_286
REMARK   95  A    between atoms: _221  and  _223
REMARK   96  A    between atoms: _223  and  _224
REMARK   97  A    between atoms: _223  and  _226
REMARK   98  A    between atoms: _226  and  _227
REMARK   99  A    between atoms: _230  and  _232
REMARK  100  A    between atoms: _232  and  _233
REMARK  101  A    between atoms: _232  and  _235
REMARK  102  A    between atoms: _235  and  _236
REMARK  103  A    between atoms: _239  and  _241
REMARK  104  A    between atoms: _241  and  _242
REMARK  105  A    between atoms: _241  and  _244
REMARK  106  A    between atoms: _247  and  _249
REMARK  107  A    between atoms: _249  and  _250
REMARK  108  A    between atoms: _249  and  _252
REMARK  109  A    between atoms: _252  and  _253
REMARK  110  A    between atoms: _256  and  _258
REMARK  111  A    between atoms: _258  and  _259
REMARK  112  A    between atoms: _258  and  _261
REMARK  113  A    between atoms: _261  and  _262
REMARK  114  A    between atoms: _267  and  _269
REMARK  115  A    between atoms: _269  and  _270
REMARK  116  A    between atoms: _269  and  _272
REMARK  117  A    between atoms: _272  and  _273
REMARK  118  A    between atoms: _273  and  _274
REMARK  119  A    between atoms: _276  and  _278
REMARK  120  A    between atoms: _278  and  _279
REMARK  121  A    between atoms: _281  and  _283
REMARK  122  A    between atoms: _283  and  _284
REMARK                            x       y       z     vdW  Elec       q    Type
REMARK                         _______ _______ _______ _____ _____    ______ ____
ROOT
ATOM      1  O   HOH     1     -27.585  47.347  10.317  0.00  0.00    +0.000 OA
ENDROOT
TORSDOF 0
REMARK  Name = ../refined-set-2016/2cbz/2cbz_pocket.pdb
REMARK  122 active torsions:
REMARK  status: ('A' for Active; 'I' for Inactive)
REMARK    1  A    between atoms: _1  and  _3
REMARK    2  A    between atoms: _3  and  _4
REMARK    3  A    between atoms: _3  and  _6
REMARK    4  A    between atoms: _6  and  _7
REMARK    5  A    between atoms: _10  and  _12
REMARK    6  A    between atoms: _12  and  _13
REMARK    7  A    between atoms: _12  and  _15
REMARK    8  A    between atoms: _15  and  _16
REMARK    9  A    between atoms: _26  and  _28
REMARK   10  A    between atoms: _28  and  _29
REMARK   11  A    between atoms: _33  and  _34
REMARK   12  A    between atoms: _39  and  _41
REMARK   13  A    between atoms: _41  and  _42
REMARK   14  A    between atoms: _41  and  _44
REMARK   15  A    between atoms: _44  and  _45
REMARK   16  A    between atoms: _48  and  _50
REMARK   17  A    between atoms: _50  and  _51
REMARK   18  A    between atoms: _50  and  _53
REMARK   19  A    between atoms: _53  and  _54
REMARK   20  A    between atoms: _57  and  _59
REMARK   21  A    between atoms: _59  and  _60
REMARK   22  A    between atoms: _59  and  _62
REMARK   23  A    between atoms: _65  and  _67
REMARK   24  A    between atoms: _67  and  _68
REMARK   25  A    between atoms: _67  and  _70
REMARK   26  A    between atoms: _73  and  _75
REMARK   27  A    between atoms: _75  and  _76
REMARK   28  A    between atoms: _78  and  _80
REMARK   29  A    between atoms: _80  and  _81
REMARK   30  A    between atoms: _80  and  _83
REMARK   31  A    between atoms: _83  and  _84
REMARK   32  A    between atoms: _84  and  _85
REMARK   33  A    between atoms: _90  and  _92
REMARK   34  A    between atoms: _92  and  _93
REMARK   35  A    between atoms: _92  and  _95
REMARK   36  A    between atoms: _98  and  _100
REMARK   37  A    between atoms: _100  and  _101
REMARK   38  A    between atoms: _103  and  _105
REMARK   39  A    between atoms: _105  and  _106
REMARK   40  A    between atoms: _105  and  _108
REMARK   41  A    between atoms: _110  and  _112
REMARK   42  A    between atoms: _112  and  _113
REMARK   43  A    between atoms: _115  and  _117
REMARK   44  A    between atoms: _117  and  _118
REMARK   45  A    between atoms: _117  and  _120
REMARK   46  A    between atoms: _120  and  _121
REMARK   47  A    between atoms: _121  and  _122
REMARK   48  A    between atoms: _122  and  _123
REMARK   49  A    between atoms: _123  and  _124
REMARK   50  A    between atoms: _128  and  _130
REMARK   51  A    between atoms: _130  and  _131
REMARK   52  A    between atoms: _130  and  _133
REMARK   53  A    between atoms: _133  and  _134
REMARK   54  A    between atoms: _136  and  _138
REMARK   55  A    between atoms: _138  and  _139
REMARK   56  A    between atoms: _138  and  _141
REMARK   57  A    between atoms: _141  and  _142
REMARK   58  A    between atoms: _144  and  _146
REMARK   59  A    between atoms: _146  and  _147
REMARK   60  A    between atoms: _146  and  _149
REMARK   61  A    between atoms: _149  and  _150
REMARK   62  A    between atoms: _153  and  _155
REMARK   63  A    between atoms: _155  and  _156
REMARK   64  A    between atoms: _155  and  _158
REMARK   65  A    between atoms: _158  and  _159
REMARK   66  A    between atoms: _162  and  _164
REMARK   67  A    between atoms: _164  and  _165
REMARK   68  A    between atoms: _164  and  _167
REMARK   69  A    between atoms: _167  and  _168
REMARK   70  A    between atoms: _170  and  _172
REMARK   71  A    between atoms: _172  and  _173
REMARK   72  A    between atoms: _176  and  _178
REMARK   73  A    between atoms: _178  and  _179
REMARK   74  A    between atoms: _178  and  _181
REMARK   75  A    between atoms: _181  and  _182
REMARK   76  A    between atoms: _182  and  _183
REMARK   77  A    between atoms: _186  and  _188
REMARK   78  A    between atoms: _188  and  _189
REMARK   79  A    between atoms: _188  and  _191
REMARK   80  A    between atoms: _191  and  _192
REMARK   81  A    between atoms: _192  and  _193
REMARK   82  A    between atoms: _195  and  _197
REMARK   83  A    between atoms: _197  and  _198
REMARK   84  A    between atoms: _197  and  _200
REMARK   85  A    between atoms: _200  and  _201
REMARK   86  A    between atoms: _206  and  _207
REMARK   87  A    between atoms: _209  and  _211
REMARK   88  A    between atoms: _211  and  _212
REMARK   89  A    between atoms: _211  and  _214
REMARK   90  A    between atoms: _214  and  _215
REMARK   91  A    between atoms: _215  and  _216
REMARK   92  A    between atoms: _216  and  _217
REMARK   93  A    between atoms: _216  and  _218
REMARK   94  A    between atoms: _217  and  MG_286
REMARK   95  A    between atoms: _221  and  _223
REMARK   96  A    between atoms: _223  and  _224
REMARK   97  A    between atoms: _223  and  _226
REMARK   98  A    between atoms: _226  and  _227
REMARK   99  A    between atoms: _230  and  _232
REMARK  100  A    between atoms: _232  and  _233
REMARK  101  A    between atoms: _232  and  _235
REMARK  102  A    between atoms: _235  and  _236
REMARK  103  A    between atoms: _239  and  _241
REMARK  104  A    between atoms: _241  and  _242
REMARK  105  A    between atoms: _241  and  _244
REMARK  106  A    between atoms: _247  and  _249
REMARK  107  A    between atoms: _249  and  _250
REMARK  108  A    between atoms: _249  and  _252
REMARK  109  A    between atoms: _252  and  _253
REMARK  110  A    between atoms: _256  and  _258
REMARK  111  A    between atoms: _258  and  _259
REMARK  112  A    between atoms: _258  and  _261
REMARK  113  A    between atoms: _261  and  _262
REMARK  114  A    between atoms: _267  and  _269
REMARK  115  A    between atoms: _269  and  _270
REMARK  116  A    between atoms: _269  and  _272
REMARK  117  A    between atoms: _272  and  _273
REMARK  118  A    between atoms: _273  and  _274
REMARK  119  A    between atoms: _276  and  _278
REMARK  120  A    between atoms: _278  and  _279
REMARK  121  A    between atoms: _281  and  _283
REMARK  122  A    between atoms: _283  and  _284
REMARK                            x       y       z     vdW  Elec       q    Type
REMARK                         _______ _______ _______ _____ _____    ______ ____
ROOT
ATOM      1  O   HOH     1     -27.082  44.909  10.915  0.00  0.00    +0.000 OA
ENDROOT
TORSDOF 0
REMARK  Name = ../refined-set-2016/2cbz/2cbz_pocket.pdb
REMARK  122 active torsions:
REMARK  status: ('A' for Active; 'I' for Inactive)
REMARK    1  A    between atoms: _1  and  _3
REMARK    2  A    between atoms: _3  and  _4
REMARK    3  A    between atoms: _3  and  _6
REMARK    4  A    between atoms: _6  and  _7
REMARK    5  A    between atoms: _10  and  _12
REMARK    6  A    between atoms: _12  and  _13
REMARK    7  A    between atoms: _12  and  _15
REMARK    8  A    between atoms: _15  and  _16
REMARK    9  A    between atoms: _26  and  _28
REMARK   10  A    between atoms: _28  and  _29
REMARK   11  A    between atoms: _33  and  _34
REMARK   12  A    between atoms: _39  and  _41
REMARK   13  A    between atoms: _41  and  _42
REMARK   14  A    between atoms: _41  and  _44
REMARK   15  A    between atoms: _44  and  _45
REMARK   16  A    between atoms: _48  and  _50
REMARK   17  A    between atoms: _50  and  _51
REMARK   18  A    between atoms: _50  and  _53
REMARK   19  A    between atoms: _53  and  _54
REMARK   20  A    between atoms: _57  and  _59
REMARK   21  A    between atoms: _59  and  _60
REMARK   22  A    between atoms: _59  and  _62
REMARK   23  A    between atoms: _65  and  _67
REMARK   24  A    between atoms: _67  and  _68
REMARK   25  A    between atoms: _67  and  _70
REMARK   26  A    between atoms: _73  and  _75
REMARK   27  A    between atoms: _75  and  _76
REMARK   28  A    between atoms: _78  and  _80
REMARK   29  A    between atoms: _80  and  _81
REMARK   30  A    between atoms: _80  and  _83
REMARK   31  A    between atoms: _83  and  _84
REMARK   32  A    between atoms: _84  and  _85
REMARK   33  A    between atoms: _90  and  _92
REMARK   34  A    between atoms: _92  and  _93
REMARK   35  A    between atoms: _92  and  _95
REMARK   36  A    between atoms: _98  and  _100
REMARK   37  A    between atoms: _100  and  _101
REMARK   38  A    between atoms: _103  and  _105
REMARK   39  A    between atoms: _105  and  _106
REMARK   40  A    between atoms: _105  and  _108
REMARK   41  A    between atoms: _110  and  _112
REMARK   42  A    between atoms: _112  and  _113
REMARK   43  A    between atoms: _115  and  _117
REMARK   44  A    between atoms: _117  and  _118
REMARK   45  A    between atoms: _117  and  _120
REMARK   46  A    between atoms: _120  and  _121
REMARK   47  A    between atoms: _121  and  _122
REMARK   48  A    between atoms: _122  and  _123
REMARK   49  A    between atoms: _123  and  _124
REMARK   50  A    between atoms: _128  and  _130
REMARK   51  A    between atoms: _130  and  _131
REMARK   52  A    between atoms: _130  and  _133
REMARK   53  A    between atoms: _133  and  _134
REMARK   54  A    between atoms: _136  and  _138
REMARK   55  A    between atoms: _138  and  _139
REMARK   56  A    between atoms: _138  and  _141
REMARK   57  A    between atoms: _141  and  _142
REMARK   58  A    between atoms: _144  and  _146
REMARK   59  A    between atoms: _146  and  _147
REMARK   60  A    between atoms: _146  and  _149
REMARK   61  A    between atoms: _149  and  _150
REMARK   62  A    between atoms: _153  and  _155
REMARK   63  A    between atoms: _155  and  _156
REMARK   64  A    between atoms: _155  and  _158
REMARK   65  A    between atoms: _158  and  _159
REMARK   66  A    between atoms: _162  and  _164
REMARK   67  A    between atoms: _164  and  _165
REMARK   68  A    between atoms: _164  and  _167
REMARK   69  A    between atoms: _167  and  _168
REMARK   70  A    between atoms: _170  and  _172
REMARK   71  A    between atoms: _172  and  _173
REMARK   72  A    between atoms: _176  and  _178
REMARK   73  A    between atoms: _178  and  _179
REMARK   74  A    between atoms: _178  and  _181
REMARK   75  A    between atoms: _181  and  _182
REMARK   76  A    between atoms: _182  and  _183
REMARK   77  A    between atoms: _186  and  _188
REMARK   78  A    between atoms: _188  and  _189
REMARK   79  A    between atoms: _188  and  _191
REMARK   80  A    between atoms: _191  and  _192
REMARK   81  A    between atoms: _192  and  _193
REMARK   82  A    between atoms: _195  and  _197
REMARK   83  A    between atoms: _197  and  _198
REMARK   84  A    between atoms: _197  and  _200
REMARK   85  A    between atoms: _200  and  _201
REMARK   86  A    between atoms: _206  and  _207
REMARK   87  A    between atoms: _209  and  _211
REMARK   88  A    between atoms: _211  and  _212
REMARK   89  A    between atoms: _211  and  _214
REMARK   90  A    between atoms: _214  and  _215
REMARK   91  A    between atoms: _215  and  _216
REMARK   92  A    between atoms: _216  and  _217
REMARK   93  A    between atoms: _216  and  _218
REMARK   94  A    between atoms: _217  and  MG_286
REMARK   95  A    between atoms: _221  and  _223
REMARK   96  A    between atoms: _223  and  _224
REMARK   97  A    between atoms: _223  and  _226
REMARK   98  A    between atoms: _226  and  _227
REMARK   99  A    between atoms: _230  and  _232
REMARK  100  A    between atoms: _232  and  _233
REMARK  101  A    between atoms: _232  and  _235
REMARK  102  A    between atoms: _235  and  _236
REMARK  103  A    between atoms: _239  and  _241
REMARK  104  A    between atoms: _241  and  _242
REMARK  105  A    between atoms: _241  and  _244
REMARK  106  A    between atoms: _247  and  _249
REMARK  107  A    between atoms: _249  and  _250
REMARK  108  A    between atoms: _249  and  _252
REMARK  109  A    between atoms: _252  and  _253
REMARK  110  A    between atoms: _256  and  _258
REMARK  111  A    between atoms: _258  and  _259
REMARK  112  A    between atoms: _258  and  _261
REMARK  113  A    between atoms: _261  and  _262
REMARK  114  A    between atoms: _267  and  _269
REMARK  115  A    between atoms: _269  and  _270
REMARK  116  A    between atoms: _269  and  _272
REMARK  117  A    between atoms: _272  and  _273
REMARK  118  A    between atoms: _273  and  _274
REMARK  119  A    between atoms: _276  and  _278
REMARK  120  A    between atoms: _278  and  _279
REMARK  121  A    between atoms: _281  and  _283
REMARK  122  A    between atoms: _283  and  _284
REMARK                            x       y       z     vdW  Elec       q    Type
REMARK                         _______ _______ _______ _____ _____    ______ ____
ROOT
ATOM      1  O   HOH     1     -19.737  43.717   5.190  0.00  0.00    +0.000 OA
ENDROOT
TORSDOF 0
REMARK  Name = ../refined-set-2016/2cbz/2cbz_pocket.pdb
REMARK  122 active torsions:
REMARK  status: ('A' for Active; 'I' for Inactive)
REMARK    1  A    between atoms: _1  and  _3
REMARK    2  A    between atoms: _3  and  _4
REMARK    3  A    between atoms: _3  and  _6
REMARK    4  A    between atoms: _6  and  _7
REMARK    5  A    between atoms: _10  and  _12
REMARK    6  A    between atoms: _12  and  _13
REMARK    7  A    between atoms: _12  and  _15
REMARK    8  A    between atoms: _15  and  _16
REMARK    9  A    between atoms: _26  and  _28
REMARK   10  A    between atoms: _28  and  _29
REMARK   11  A    between atoms: _33  and  _34
REMARK   12  A    between atoms: _39  and  _41
REMARK   13  A    between atoms: _41  and  _42
REMARK   14  A    between atoms: _41  and  _44
REMARK   15  A    between atoms: _44  and  _45
REMARK   16  A    between atoms: _48  and  _50
REMARK   17  A    between atoms: _50  and  _51
REMARK   18  A    between atoms: _50  and  _53
REMARK   19  A    between atoms: _53  and  _54
REMARK   20  A    between atoms: _57  and  _59
REMARK   21  A    between atoms: _59  and  _60
REMARK   22  A    between atoms: _59  and  _62
REMARK   23  A    between atoms: _65  and  _67
REMARK   24  A    between atoms: _67  and  _68
REMARK   25  A    between atoms: _67  and  _70
REMARK   26  A    between atoms: _73  and  _75
REMARK   27  A    between atoms: _75  and  _76
REMARK   28  A    between atoms: _78  and  _80
REMARK   29  A    between atoms: _80  and  _81
REMARK   30  A    between atoms: _80  and  _83
REMARK   31  A    between atoms: _83  and  _84
REMARK   32  A    between atoms: _84  and  _85
REMARK   33  A    between atoms: _90  and  _92
REMARK   34  A    between atoms: _92  and  _93
REMARK   35  A    between atoms: _92  and  _95
REMARK   36  A    between atoms: _98  and  _100
REMARK   37  A    between atoms: _100  and  _101
REMARK   38  A    between atoms: _103  and  _105
REMARK   39  A    between atoms: _105  and  _106
REMARK   40  A    between atoms: _105  and  _108
REMARK   41  A    between atoms: _110  and  _112
REMARK   42  A    between atoms: _112  and  _113
REMARK   43  A    between atoms: _115  and  _117
REMARK   44  A    between atoms: _117  and  _118
REMARK   45  A    between atoms: _117  and  _120
REMARK   46  A    between atoms: _120  and  _121
REMARK   47  A    between atoms: _121  and  _122
REMARK   48  A    between atoms: _122  and  _123
REMARK   49  A    between atoms: _123  and  _124
REMARK   50  A    between atoms: _128  and  _130
REMARK   51  A    between atoms: _130  and  _131
REMARK   52  A    between atoms: _130  and  _133
REMARK   53  A    between atoms: _133  and  _134
REMARK   54  A    between atoms: _136  and  _138
REMARK   55  A    between atoms: _138  and  _139
REMARK   56  A    between atoms: _138  and  _141
REMARK   57  A    between atoms: _141  and  _142
REMARK   58  A    between atoms: _144  and  _146
REMARK   59  A    between atoms: _146  and  _147
REMARK   60  A    between atoms: _146  and  _149
REMARK   61  A    between atoms: _149  and  _150
REMARK   62  A    between atoms: _153  and  _155
REMARK   63  A    between atoms: _155  and  _156
REMARK   64  A    between atoms: _155  and  _158
REMARK   65  A    between atoms: _158  and  _159
REMARK   66  A    between atoms: _162  and  _164
REMARK   67  A    between atoms: _164  and  _165
REMARK   68  A    between atoms: _164  and  _167
REMARK   69  A    between atoms: _167  and  _168
REMARK   70  A    between atoms: _170  and  _172
REMARK   71  A    between atoms: _172  and  _173
REMARK   72  A    between atoms: _176  and  _178
REMARK   73  A    between atoms: _178  and  _179
REMARK   74  A    between atoms: _178  and  _181
REMARK   75  A    between atoms: _181  and  _182
REMARK   76  A    between atoms: _182  and  _183
REMARK   77  A    between atoms: _186  and  _188
REMARK   78  A    between atoms: _188  and  _189
REMARK   79  A    between atoms: _188  and  _191
REMARK   80  A    between atoms: _191  and  _192
REMARK   81  A    between atoms: _192  and  _193
REMARK   82  A    between atoms: _195  and  _197
REMARK   83  A    between atoms: _197  and  _198
REMARK   84  A    between atoms: _197  and  _200
REMARK   85  A    between atoms: _200  and  _201
REMARK   86  A    between atoms: _206  and  _207
REMARK   87  A    between atoms: _209  and  _211
REMARK   88  A    between atoms: _211  and  _212
REMARK   89  A    between atoms: _211  and  _214
REMARK   90  A    between atoms: _214  and  _215
REMARK   91  A    between atoms: _215  and  _216
REMARK   92  A    between atoms: _216  and  _217
REMARK   93  A    between atoms: _216  and  _218
REMARK   94  A    between atoms: _217  and  MG_286
REMARK   95  A    between atoms: _221  and  _223
REMARK   96  A    between atoms: _223  and  _224
REMARK   97  A    between atoms: _223  and  _226
REMARK   98  A    between atoms: _226  and  _227
REMARK   99  A    between atoms: _230  and  _232
REMARK  100  A    between atoms: _232  and  _233
REMARK  101  A    between atoms: _232  and  _235
REMARK  102  A    between atoms: _235  and  _236
REMARK  103  A    between atoms: _239  and  _241
REMARK  104  A    between atoms: _241  and  _242
REMARK  105  A    between atoms: _241  and  _244
REMARK  106  A    between atoms: _247  and  _249
REMARK  107  A    between atoms: _249  and  _250
REMARK  108  A    between atoms: _249  and  _252
REMARK  109  A    between atoms: _252  and  _253
REMARK  110  A    between atoms: _256  and  _258
REMARK  111  A    between atoms: _258  and  _259
REMARK  112  A    between atoms: _258  and  _261
REMARK  113  A    between atoms: _261  and  _262
REMARK  114  A    between atoms: _267  and  _269
REMARK  115  A    between atoms: _269  and  _270
REMARK  116  A    between atoms: _269  and  _272
REMARK  117  A    between atoms: _272  and  _273
REMARK  118  A    between atoms: _273  and  _274
REMARK  119  A    between atoms: _276  and  _278
REMARK  120  A    between atoms: _278  and  _279
REMARK  121  A    between atoms: _281  and  _283
REMARK  122  A    between atoms: _283  and  _284
REMARK                            x       y       z     vdW  Elec       q    Type
REMARK                         _______ _______ _______ _____ _____    ______ ____
ROOT
ATOM      1  O   HOH     1     -17.814  44.809  -4.618  0.00  0.00    +0.000 OA
ENDROOT
TORSDOF 0
REMARK  Name = ../refined-set-2016/2cbz/2cbz_pocket.pdb
REMARK  122 active torsions:
REMARK  status: ('A' for Active; 'I' for Inactive)
REMARK    1  A    between atoms: _1  and  _3
REMARK    2  A    between atoms: _3  and  _4
REMARK    3  A    between atoms: _3  and  _6
REMARK    4  A    between atoms: _6  and  _7
REMARK    5  A    between atoms: _10  and  _12
REMARK    6  A    between atoms: _12  and  _13
REMARK    7  A    between atoms: _12  and  _15
REMARK    8  A    between atoms: _15  and  _16
REMARK    9  A    between atoms: _26  and  _28
REMARK   10  A    between atoms: _28  and  _29
REMARK   11  A    between atoms: _33  and  _34
REMARK   12  A    between atoms: _39  and  _41
REMARK   13  A    between atoms: _41  and  _42
REMARK   14  A    between atoms: _41  and  _44
REMARK   15  A    between atoms: _44  and  _45
REMARK   16  A    between atoms: _48  and  _50
REMARK   17  A    between atoms: _50  and  _51
REMARK   18  A    between atoms: _50  and  _53
REMARK   19  A    between atoms: _53  and  _54
REMARK   20  A    between atoms: _57  and  _59
REMARK   21  A    between atoms: _59  and  _60
REMARK   22  A    between atoms: _59  and  _62
REMARK   23  A    between atoms: _65  and  _67
REMARK   24  A    between atoms: _67  and  _68
REMARK   25  A    between atoms: _67  and  _70
REMARK   26  A    between atoms: _73  and  _75
REMARK   27  A    between atoms: _75  and  _76
REMARK   28  A    between atoms: _78  and  _80
REMARK   29  A    between atoms: _80  and  _81
REMARK   30  A    between atoms: _80  and  _83
REMARK   31  A    between atoms: _83  and  _84
REMARK   32  A    between atoms: _84  and  _85
REMARK   33  A    between atoms: _90  and  _92
REMARK   34  A    between atoms: _92  and  _93
REMARK   35  A    between atoms: _92  and  _95
REMARK   36  A    between atoms: _98  and  _100
REMARK   37  A    between atoms: _100  and  _101
REMARK   38  A    between atoms: _103  and  _105
REMARK   39  A    between atoms: _105  and  _106
REMARK   40  A    between atoms: _105  and  _108
REMARK   41  A    between atoms: _110  and  _112
REMARK   42  A    between atoms: _112  and  _113
REMARK   43  A    between atoms: _115  and  _117
REMARK   44  A    between atoms: _117  and  _118
REMARK   45  A    between atoms: _117  and  _120
REMARK   46  A    between atoms: _120  and  _121
REMARK   47  A    between atoms: _121  and  _122
REMARK   48  A    between atoms: _122  and  _123
REMARK   49  A    between atoms: _123  and  _124
REMARK   50  A    between atoms: _128  and  _130
REMARK   51  A    between atoms: _130  and  _131
REMARK   52  A    between atoms: _130  and  _133
REMARK   53  A    between atoms: _133  and  _134
REMARK   54  A    between atoms: _136  and  _138
REMARK   55  A    between atoms: _138  and  _139
REMARK   56  A    between atoms: _138  and  _141
REMARK   57  A    between atoms: _141  and  _142
REMARK   58  A    between atoms: _144  and  _146
REMARK   59  A    between atoms: _146  and  _147
REMARK   60  A    between atoms: _146  and  _149
REMARK   61  A    between atoms: _149  and  _150
REMARK   62  A    between atoms: _153  and  _155
REMARK   63  A    between atoms: _155  and  _156
REMARK   64  A    between atoms: _155  and  _158
REMARK   65  A    between atoms: _158  and  _159
REMARK   66  A    between atoms: _162  and  _164
REMARK   67  A    between atoms: _164  and  _165
REMARK   68  A    between atoms: _164  and  _167
REMARK   69  A    between atoms: _167  and  _168
REMARK   70  A    between atoms: _170  and  _172
REMARK   71  A    between atoms: _172  and  _173
REMARK   72  A    between atoms: _176  and  _178
REMARK   73  A    between atoms: _178  and  _179
REMARK   74  A    between atoms: _178  and  _181
REMARK   75  A    between atoms: _181  and  _182
REMARK   76  A    between atoms: _182  and  _183
REMARK   77  A    between atoms: _186  and  _188
REMARK   78  A    between atoms: _188  and  _189
REMARK   79  A    between atoms: _188  and  _191
REMARK   80  A    between atoms: _191  and  _192
REMARK   81  A    between atoms: _192  and  _193
REMARK   82  A    between atoms: _195  and  _197
REMARK   83  A    between atoms: _197  and  _198
REMARK   84  A    between atoms: _197  and  _200
REMARK   85  A    between atoms: _200  and  _201
REMARK   86  A    between atoms: _206  and  _207
REMARK   87  A    between atoms: _209  and  _211
REMARK   88  A    between atoms: _211  and  _212
REMARK   89  A    between atoms: _211  and  _214
REMARK   90  A    between atoms: _214  and  _215
REMARK   91  A    between atoms: _215  and  _216
REMARK   92  A    between atoms: _216  and  _217
REMARK   93  A    between atoms: _216  and  _218
REMARK   94  A    between atoms: _217  and  MG_286
REMARK   95  A    between atoms: _221  and  _223
REMARK   96  A    between atoms: _223  and  _224
REMARK   97  A    between atoms: _223  and  _226
REMARK   98  A    between atoms: _226  and  _227
REMARK   99  A    between atoms: _230  and  _232
REMARK  100  A    between atoms: _232  and  _233
REMARK  101  A    between atoms: _232  and  _235
REMARK  102  A    between atoms: _235  and  _236
REMARK  103  A    between atoms: _239  and  _241
REMARK  104  A    between atoms: _241  and  _242
REMARK  105  A    between atoms: _241  and  _244
REMARK  106  A    between atoms: _247  and  _249
REMARK  107  A    between atoms: _249  and  _250
REMARK  108  A    between atoms: _249  and  _252
REMARK  109  A    between atoms: _252  and  _253
REMARK  110  A    between atoms: _256  and  _258
REMARK  111  A    between atoms: _258  and  _259
REMARK  112  A    between atoms: _258  and  _261
REMARK  113  A    between atoms: _261  and  _262
REMARK  114  A    between atoms: _267  and  _269
REMARK  115  A    between atoms: _269  and  _270
REMARK  116  A    between atoms: _269  and  _272
REMARK  117  A    between atoms: _272  and  _273
REMARK  118  A    between atoms: _273  and  _274
REMARK  119  A    between atoms: _276  and  _278
REMARK  120  A    between atoms: _278  and  _279
REMARK  121  A    between atoms: _281  and  _283
REMARK  122  A    between atoms: _283  and  _284
REMARK                            x       y       z     vdW  Elec       q    Type
REMARK                         _______ _______ _______ _____ _____    ______ ____
ROOT
ATOM      1  O   HOH     1     -23.470  47.169   9.385  0.00  0.00    +0.000 OA
ENDROOT
TORSDOF 0
REMARK  Name = ../refined-set-2016/2cbz/2cbz_pocket.pdb
REMARK  122 active torsions:
REMARK  status: ('A' for Active; 'I' for Inactive)
REMARK    1  A    between atoms: _1  and  _3
REMARK    2  A    between atoms: _3  and  _4
REMARK    3  A    between atoms: _3  and  _6
REMARK    4  A    between atoms: _6  and  _7
REMARK    5  A    between atoms: _10  and  _12
REMARK    6  A    between atoms: _12  and  _13
REMARK    7  A    between atoms: _12  and  _15
REMARK    8  A    between atoms: _15  and  _16
REMARK    9  A    between atoms: _26  and  _28
REMARK   10  A    between atoms: _28  and  _29
REMARK   11  A    between atoms: _33  and  _34
REMARK   12  A    between atoms: _39  and  _41
REMARK   13  A    between atoms: _41  and  _42
REMARK   14  A    between atoms: _41  and  _44
REMARK   15  A    between atoms: _44  and  _45
REMARK   16  A    between atoms: _48  and  _50
REMARK   17  A    between atoms: _50  and  _51
REMARK   18  A    between atoms: _50  and  _53
REMARK   19  A    between atoms: _53  and  _54
REMARK   20  A    between atoms: _57  and  _59
REMARK   21  A    between atoms: _59  and  _60
REMARK   22  A    between atoms: _59  and  _62
REMARK   23  A    between atoms: _65  and  _67
REMARK   24  A    between atoms: _67  and  _68
REMARK   25  A    between atoms: _67  and  _70
REMARK   26  A    between atoms: _73  and  _75
REMARK   27  A    between atoms: _75  and  _76
REMARK   28  A    between atoms: _78  and  _80
REMARK   29  A    between atoms: _80  and  _81
REMARK   30  A    between atoms: _80  and  _83
REMARK   31  A    between atoms: _83  and  _84
REMARK   32  A    between atoms: _84  and  _85
REMARK   33  A    between atoms: _90  and  _92
REMARK   34  A    between atoms: _92  and  _93
REMARK   35  A    between atoms: _92  and  _95
REMARK   36  A    between atoms: _98  and  _100
REMARK   37  A    between atoms: _100  and  _101
REMARK   38  A    between atoms: _103  and  _105
REMARK   39  A    between atoms: _105  and  _106
REMARK   40  A    between atoms: _105  and  _108
REMARK   41  A    between atoms: _110  and  _112
REMARK   42  A    between atoms: _112  and  _113
REMARK   43  A    between atoms: _115  and  _117
REMARK   44  A    between atoms: _117  and  _118
REMARK   45  A    between atoms: _117  and  _120
REMARK   46  A    between atoms: _120  and  _121
REMARK   47  A    between atoms: _121  and  _122
REMARK   48  A    between atoms: _122  and  _123
REMARK   49  A    between atoms: _123  and  _124
REMARK   50  A    between atoms: _128  and  _130
REMARK   51  A    between atoms: _130  and  _131
REMARK   52  A    between atoms: _130  and  _133
REMARK   53  A    between atoms: _133  and  _134
REMARK   54  A    between atoms: _136  and  _138
REMARK   55  A    between atoms: _138  and  _139
REMARK   56  A    between atoms: _138  and  _141
REMARK   57  A    between atoms: _141  and  _142
REMARK   58  A    between atoms: _144  and  _146
REMARK   59  A    between atoms: _146  and  _147
REMARK   60  A    between atoms: _146  and  _149
REMARK   61  A    between atoms: _149  and  _150
REMARK   62  A    between atoms: _153  and  _155
REMARK   63  A    between atoms: _155  and  _156
REMARK   64  A    between atoms: _155  and  _158
REMARK   65  A    between atoms: _158  and  _159
REMARK   66  A    between atoms: _162  and  _164
REMARK   67  A    between atoms: _164  and  _165
REMARK   68  A    between atoms: _164  and  _167
REMARK   69  A    between atoms: _167  and  _168
REMARK   70  A    between atoms: _170  and  _172
REMARK   71  A    between atoms: _172  and  _173
REMARK   72  A    between atoms: _176  and  _178
REMARK   73  A    between atoms: _178  and  _179
REMARK   74  A    between atoms: _178  and  _181
REMARK   75  A    between atoms: _181  and  _182
REMARK   76  A    between atoms: _182  and  _183
REMARK   77  A    between atoms: _186  and  _188
REMARK   78  A    between atoms: _188  and  _189
REMARK   79  A    between atoms: _188  and  _191
REMARK   80  A    between atoms: _191  and  _192
REMARK   81  A    between atoms: _192  and  _193
REMARK   82  A    between atoms: _195  and  _197
REMARK   83  A    between atoms: _197  and  _198
REMARK   84  A    between atoms: _197  and  _200
REMARK   85  A    between atoms: _200  and  _201
REMARK   86  A    between atoms: _206  and  _207
REMARK   87  A    between atoms: _209  and  _211
REMARK   88  A    between atoms: _211  and  _212
REMARK   89  A    between atoms: _211  and  _214
REMARK   90  A    between atoms: _214  and  _215
REMARK   91  A    between atoms: _215  and  _216
REMARK   92  A    between atoms: _216  and  _217
REMARK   93  A    between atoms: _216  and  _218
REMARK   94  A    between atoms: _217  and  MG_286
REMARK   95  A    between atoms: _221  and  _223
REMARK   96  A    between atoms: _223  and  _224
REMARK   97  A    between atoms: _223  and  _226
REMARK   98  A    between atoms: _226  and  _227
REMARK   99  A    between atoms: _230  and  _232
REMARK  100  A    between atoms: _232  and  _233
REMARK  101  A    between atoms: _232  and  _235
REMARK  102  A    between atoms: _235  and  _236
REMARK  103  A    between atoms: _239  and  _241
REMARK  104  A    between atoms: _241  and  _242
REMARK  105  A    between atoms: _241  and  _244
REMARK  106  A    between atoms: _247  and  _249
REMARK  107  A    between atoms: _249  and  _250
REMARK  108  A    between atoms: _249  and  _252
REMARK  109  A    between atoms: _252  and  _253
REMARK  110  A    between atoms: _256  and  _258
REMARK  111  A    between atoms: _258  and  _259
REMARK  112  A    between atoms: _258  and  _261
REMARK  113  A    between atoms: _261  and  _262
REMARK  114  A    between atoms: _267  and  _269
REMARK  115  A    between atoms: _269  and  _270
REMARK  116  A    between atoms: _269  and  _272
REMARK  117  A    between atoms: _272  and  _273
REMARK  118  A    between atoms: _273  and  _274
REMARK  119  A    between atoms: _276  and  _278
REMARK  120  A    between atoms: _278  and  _279
REMARK  121  A    between atoms: _281  and  _283
REMARK  122  A    between atoms: _283  and  _284
REMARK                            x       y       z     vdW  Elec       q    Type
REMARK                         _______ _______ _______ _____ _____    ______ ____
ROOT
ATOM      1  O   HOH     1     -22.476  44.708   2.928  0.00  0.00    +0.000 OA
ENDROOT
TORSDOF 0
REMARK  Name = ../refined-set-2016/2cbz/2cbz_pocket.pdb
REMARK  122 active torsions:
REMARK  status: ('A' for Active; 'I' for Inactive)
REMARK    1  A    between atoms: _1  and  _3
REMARK    2  A    between atoms: _3  and  _4
REMARK    3  A    between atoms: _3  and  _6
REMARK    4  A    between atoms: _6  and  _7
REMARK    5  A    between atoms: _10  and  _12
REMARK    6  A    between atoms: _12  and  _13
REMARK    7  A    between atoms: _12  and  _15
REMARK    8  A    between atoms: _15  and  _16
REMARK    9  A    between atoms: _26  and  _28
REMARK   10  A    between atoms: _28  and  _29
REMARK   11  A    between atoms: _33  and  _34
REMARK   12  A    between atoms: _39  and  _41
REMARK   13  A    between atoms: _41  and  _42
REMARK   14  A    between atoms: _41  and  _44
REMARK   15  A    between atoms: _44  and  _45
REMARK   16  A    between atoms: _48  and  _50
REMARK   17  A    between atoms: _50  and  _51
REMARK   18  A    between atoms: _50  and  _53
REMARK   19  A    between atoms: _53  and  _54
REMARK   20  A    between atoms: _57  and  _59
REMARK   21  A    between atoms: _59  and  _60
REMARK   22  A    between atoms: _59  and  _62
REMARK   23  A    between atoms: _65  and  _67
REMARK   24  A    between atoms: _67  and  _68
REMARK   25  A    between atoms: _67  and  _70
REMARK   26  A    between atoms: _73  and  _75
REMARK   27  A    between atoms: _75  and  _76
REMARK   28  A    between atoms: _78  and  _80
REMARK   29  A    between atoms: _80  and  _81
REMARK   30  A    between atoms: _80  and  _83
REMARK   31  A    between atoms: _83  and  _84
REMARK   32  A    between atoms: _84  and  _85
REMARK   33  A    between atoms: _90  and  _92
REMARK   34  A    between atoms: _92  and  _93
REMARK   35  A    between atoms: _92  and  _95
REMARK   36  A    between atoms: _98  and  _100
REMARK   37  A    between atoms: _100  and  _101
REMARK   38  A    between atoms: _103  and  _105
REMARK   39  A    between atoms: _105  and  _106
REMARK   40  A    between atoms: _105  and  _108
REMARK   41  A    between atoms: _110  and  _112
REMARK   42  A    between atoms: _112  and  _113
REMARK   43  A    between atoms: _115  and  _117
REMARK   44  A    between atoms: _117  and  _118
REMARK   45  A    between atoms: _117  and  _120
REMARK   46  A    between atoms: _120  and  _121
REMARK   47  A    between atoms: _121  and  _122
REMARK   48  A    between atoms: _122  and  _123
REMARK   49  A    between atoms: _123  and  _124
REMARK   50  A    between atoms: _128  and  _130
REMARK   51  A    between atoms: _130  and  _131
REMARK   52  A    between atoms: _130  and  _133
REMARK   53  A    between atoms: _133  and  _134
REMARK   54  A    between atoms: _136  and  _138
REMARK   55  A    between atoms: _138  and  _139
REMARK   56  A    between atoms: _138  and  _141
REMARK   57  A    between atoms: _141  and  _142
REMARK   58  A    between atoms: _144  and  _146
REMARK   59  A    between atoms: _146  and  _147
REMARK   60  A    between atoms: _146  and  _149
REMARK   61  A    between atoms: _149  and  _150
REMARK   62  A    between atoms: _153  and  _155
REMARK   63  A    between atoms: _155  and  _156
REMARK   64  A    between atoms: _155  and  _158
REMARK   65  A    between atoms: _158  and  _159
REMARK   66  A    between atoms: _162  and  _164
REMARK   67  A    between atoms: _164  and  _165
REMARK   68  A    between atoms: _164  and  _167
REMARK   69  A    between atoms: _167  and  _168
REMARK   70  A    between atoms: _170  and  _172
REMARK   71  A    between atoms: _172  and  _173
REMARK   72  A    between atoms: _176  and  _178
REMARK   73  A    between atoms: _178  and  _179
REMARK   74  A    between atoms: _178  and  _181
REMARK   75  A    between atoms: _181  and  _182
REMARK   76  A    between atoms: _182  and  _183
REMARK   77  A    between atoms: _186  and  _188
REMARK   78  A    between atoms: _188  and  _189
REMARK   79  A    between atoms: _188  and  _191
REMARK   80  A    between atoms: _191  and  _192
REMARK   81  A    between atoms: _192  and  _193
REMARK   82  A    between atoms: _195  and  _197
REMARK   83  A    between atoms: _197  and  _198
REMARK   84  A    between atoms: _197  and  _200
REMARK   85  A    between atoms: _200  and  _201
REMARK   86  A    between atoms: _206  and  _207
REMARK   87  A    between atoms: _209  and  _211
REMARK   88  A    between atoms: _211  and  _212
REMARK   89  A    between atoms: _211  and  _214
REMARK   90  A    between atoms: _214  and  _215
REMARK   91  A    between atoms: _215  and  _216
REMARK   92  A    between atoms: _216  and  _217
REMARK   93  A    between atoms: _216  and  _218
REMARK   94  A    between atoms: _217  and  MG_286
REMARK   95  A    between atoms: _221  and  _223
REMARK   96  A    between atoms: _223  and  _224
REMARK   97  A    between atoms: _223  and  _226
REMARK   98  A    between atoms: _226  and  _227
REMARK   99  A    between atoms: _230  and  _232
REMARK  100  A    between atoms: _232  and  _233
REMARK  101  A    between atoms: _232  and  _235
REMARK  102  A    between atoms: _235  and  _236
REMARK  103  A    between atoms: _239  and  _241
REMARK  104  A    between atoms: _241  and  _242
REMARK  105  A    between atoms: _241  and  _244
REMARK  106  A    between atoms: _247  and  _249
REMARK  107  A    between atoms: _249  and  _250
REMARK  108  A    between atoms: _249  and  _252
REMARK  109  A    between atoms: _252  and  _253
REMARK  110  A    between atoms: _256  and  _258
REMARK  111  A    between atoms: _258  and  _259
REMARK  112  A    between atoms: _258  and  _261
REMARK  113  A    between atoms: _261  and  _262
REMARK  114  A    between atoms: _267  and  _269
REMARK  115  A    between atoms: _269  and  _270
REMARK  116  A    between atoms: _269  and  _272
REMARK  117  A    between atoms: _272  and  _273
REMARK  118  A    between atoms: _273  and  _274
REMARK  119  A    between atoms: _276  and  _278
REMARK  120  A    between atoms: _278  and  _279
REMARK  121  A    between atoms: _281  and  _283
REMARK  122  A    between atoms: _283  and  _284
REMARK                            x       y       z     vdW  Elec       q    Type
REMARK                         _______ _______ _______ _____ _____    ______ ____
ROOT
ATOM      1  O   HOH     1     -19.510  44.832   1.793  0.00  0.00    +0.000 OA
ENDROOT
TORSDOF 0
REMARK  Name = ../refined-set-2016/2cbz/2cbz_pocket.pdb
REMARK  122 active torsions:
REMARK  status: ('A' for Active; 'I' for Inactive)
REMARK    1  A    between atoms: _1  and  _3
REMARK    2  A    between atoms: _3  and  _4
REMARK    3  A    between atoms: _3  and  _6
REMARK    4  A    between atoms: _6  and  _7
REMARK    5  A    between atoms: _10  and  _12
REMARK    6  A    between atoms: _12  and  _13
REMARK    7  A    between atoms: _12  and  _15
REMARK    8  A    between atoms: _15  and  _16
REMARK    9  A    between atoms: _26  and  _28
REMARK   10  A    between atoms: _28  and  _29
REMARK   11  A    between atoms: _33  and  _34
REMARK   12  A    between atoms: _39  and  _41
REMARK   13  A    between atoms: _41  and  _42
REMARK   14  A    between atoms: _41  and  _44
REMARK   15  A    between atoms: _44  and  _45
REMARK   16  A    between atoms: _48  and  _50
REMARK   17  A    between atoms: _50  and  _51
REMARK   18  A    between atoms: _50  and  _53
REMARK   19  A    between atoms: _53  and  _54
REMARK   20  A    between atoms: _57  and  _59
REMARK   21  A    between atoms: _59  and  _60
REMARK   22  A    between atoms: _59  and  _62
REMARK   23  A    between atoms: _65  and  _67
REMARK   24  A    between atoms: _67  and  _68
REMARK   25  A    between atoms: _67  and  _70
REMARK   26  A    between atoms: _73  and  _75
REMARK   27  A    between atoms: _75  and  _76
REMARK   28  A    between atoms: _78  and  _80
REMARK   29  A    between atoms: _80  and  _81
REMARK   30  A    between atoms: _80  and  _83
REMARK   31  A    between atoms: _83  and  _84
REMARK   32  A    between atoms: _84  and  _85
REMARK   33  A    between atoms: _90  and  _92
REMARK   34  A    between atoms: _92  and  _93
REMARK   35  A    between atoms: _92  and  _95
REMARK   36  A    between atoms: _98  and  _100
REMARK   37  A    between atoms: _100  and  _101
REMARK   38  A    between atoms: _103  and  _105
REMARK   39  A    between atoms: _105  and  _106
REMARK   40  A    between atoms: _105  and  _108
REMARK   41  A    between atoms: _110  and  _112
REMARK   42  A    between atoms: _112  and  _113
REMARK   43  A    between atoms: _115  and  _117
REMARK   44  A    between atoms: _117  and  _118
REMARK   45  A    between atoms: _117  and  _120
REMARK   46  A    between atoms: _120  and  _121
REMARK   47  A    between atoms: _121  and  _122
REMARK   48  A    between atoms: _122  and  _123
REMARK   49  A    between atoms: _123  and  _124
REMARK   50  A    between atoms: _128  and  _130
REMARK   51  A    between atoms: _130  and  _131
REMARK   52  A    between atoms: _130  and  _133
REMARK   53  A    between atoms: _133  and  _134
REMARK   54  A    between atoms: _136  and  _138
REMARK   55  A    between atoms: _138  and  _139
REMARK   56  A    between atoms: _138  and  _141
REMARK   57  A    between atoms: _141  and  _142
REMARK   58  A    between atoms: _144  and  _146
REMARK   59  A    between atoms: _146  and  _147
REMARK   60  A    between atoms: _146  and  _149
REMARK   61  A    between atoms: _149  and  _150
REMARK   62  A    between atoms: _153  and  _155
REMARK   63  A    between atoms: _155  and  _156
REMARK   64  A    between atoms: _155  and  _158
REMARK   65  A    between atoms: _158  and  _159
REMARK   66  A    between atoms: _162  and  _164
REMARK   67  A    between atoms: _164  and  _165
REMARK   68  A    between atoms: _164  and  _167
REMARK   69  A    between atoms: _167  and  _168
REMARK   70  A    between atoms: _170  and  _172
REMARK   71  A    between atoms: _172  and  _173
REMARK   72  A    between atoms: _176  and  _178
REMARK   73  A    between atoms: _178  and  _179
REMARK   74  A    between atoms: _178  and  _181
REMARK   75  A    between atoms: _181  and  _182
REMARK   76  A    between atoms: _182  and  _183
REMARK   77  A    between atoms: _186  and  _188
REMARK   78  A    between atoms: _188  and  _189
REMARK   79  A    between atoms: _188  and  _191
REMARK   80  A    between atoms: _191  and  _192
REMARK   81  A    between atoms: _192  and  _193
REMARK   82  A    between atoms: _195  and  _197
REMARK   83  A    between atoms: _197  and  _198
REMARK   84  A    between atoms: _197  and  _200
REMARK   85  A    between atoms: _200  and  _201
REMARK   86  A    between atoms: _206  and  _207
REMARK   87  A    between atoms: _209  and  _211
REMARK   88  A    between atoms: _211  and  _212
REMARK   89  A    between atoms: _211  and  _214
REMARK   90  A    between atoms: _214  and  _215
REMARK   91  A    between atoms: _215  and  _216
REMARK   92  A    between atoms: _216  and  _217
REMARK   93  A    between atoms: _216  and  _218
REMARK   94  A    between atoms: _217  and  MG_286
REMARK   95  A    between atoms: _221  and  _223
REMARK   96  A    between atoms: _223  and  _224
REMARK   97  A    between atoms: _223  and  _226
REMARK   98  A    between atoms: _226  and  _227
REMARK   99  A    between atoms: _230  and  _232
REMARK  100  A    between atoms: _232  and  _233
REMARK  101  A    between atoms: _232  and  _235
REMARK  102  A    between atoms: _235  and  _236
REMARK  103  A    between atoms: _239  and  _241
REMARK  104  A    between atoms: _241  and  _242
REMARK  105  A    between atoms: _241  and  _244
REMARK  106  A    between atoms: _247  and  _249
REMARK  107  A    between atoms: _249  and  _250
REMARK  108  A    between atoms: _249  and  _252
REMARK  109  A    between atoms: _252  and  _253
REMARK  110  A    between atoms: _256  and  _258
REMARK  111  A    between atoms: _258  and  _259
REMARK  112  A    between atoms: _258  and  _261
REMARK  113  A    between atoms: _261  and  _262
REMARK  114  A    between atoms: _267  and  _269
REMARK  115  A    between atoms: _269  and  _270
REMARK  116  A    between atoms: _269  and  _272
REMARK  117  A    between atoms: _272  and  _273
REMARK  118  A    between atoms: _273  and  _274
REMARK  119  A    between atoms: _276  and  _278
REMARK  120  A    between atoms: _278  and  _279
REMARK  121  A    between atoms: _281  and  _283
REMARK  122  A    between atoms: _283  and  _284
REMARK                            x       y       z     vdW  Elec       q    Type
REMARK                         _______ _______ _______ _____ _____    ______ ____
ROOT
ATOM      1  O   HOH     1     -18.067  45.999   5.103  0.00  0.00    +0.000 OA
ENDROOT
TORSDOF 0
REMARK  Name = ../refined-set-2016/2cbz/2cbz_pocket.pdb
REMARK  122 active torsions:
REMARK  status: ('A' for Active; 'I' for Inactive)
REMARK    1  A    between atoms: _1  and  _3
REMARK    2  A    between atoms: _3  and  _4
REMARK    3  A    between atoms: _3  and  _6
REMARK    4  A    between atoms: _6  and  _7
REMARK    5  A    between atoms: _10  and  _12
REMARK    6  A    between atoms: _12  and  _13
REMARK    7  A    between atoms: _12  and  _15
REMARK    8  A    between atoms: _15  and  _16
REMARK    9  A    between atoms: _26  and  _28
REMARK   10  A    between atoms: _28  and  _29
REMARK   11  A    between atoms: _33  and  _34
REMARK   12  A    between atoms: _39  and  _41
REMARK   13  A    between atoms: _41  and  _42
REMARK   14  A    between atoms: _41  and  _44
REMARK   15  A    between atoms: _44  and  _45
REMARK   16  A    between atoms: _48  and  _50
REMARK   17  A    between atoms: _50  and  _51
REMARK   18  A    between atoms: _50  and  _53
REMARK   19  A    between atoms: _53  and  _54
REMARK   20  A    between atoms: _57  and  _59
REMARK   21  A    between atoms: _59  and  _60
REMARK   22  A    between atoms: _59  and  _62
REMARK   23  A    between atoms: _65  and  _67
REMARK   24  A    between atoms: _67  and  _68
REMARK   25  A    between atoms: _67  and  _70
REMARK   26  A    between atoms: _73  and  _75
REMARK   27  A    between atoms: _75  and  _76
REMARK   28  A    between atoms: _78  and  _80
REMARK   29  A    between atoms: _80  and  _81
REMARK   30  A    between atoms: _80  and  _83
REMARK   31  A    between atoms: _83  and  _84
REMARK   32  A    between atoms: _84  and  _85
REMARK   33  A    between atoms: _90  and  _92
REMARK   34  A    between atoms: _92  and  _93
REMARK   35  A    between atoms: _92  and  _95
REMARK   36  A    between atoms: _98  and  _100
REMARK   37  A    between atoms: _100  and  _101
REMARK   38  A    between atoms: _103  and  _105
REMARK   39  A    between atoms: _105  and  _106
REMARK   40  A    between atoms: _105  and  _108
REMARK   41  A    between atoms: _110  and  _112
REMARK   42  A    between atoms: _112  and  _113
REMARK   43  A    between atoms: _115  and  _117
REMARK   44  A    between atoms: _117  and  _118
REMARK   45  A    between atoms: _117  and  _120
REMARK   46  A    between atoms: _120  and  _121
REMARK   47  A    between atoms: _121  and  _122
REMARK   48  A    between atoms: _122  and  _123
REMARK   49  A    between atoms: _123  and  _124
REMARK   50  A    between atoms: _128  and  _130
REMARK   51  A    between atoms: _130  and  _131
REMARK   52  A    between atoms: _130  and  _133
REMARK   53  A    between atoms: _133  and  _134
REMARK   54  A    between atoms: _136  and  _138
REMARK   55  A    between atoms: _138  and  _139
REMARK   56  A    between atoms: _138  and  _141
REMARK   57  A    between atoms: _141  and  _142
REMARK   58  A    between atoms: _144  and  _146
REMARK   59  A    between atoms: _146  and  _147
REMARK   60  A    between atoms: _146  and  _149
REMARK   61  A    between atoms: _149  and  _150
REMARK   62  A    between atoms: _153  and  _155
REMARK   63  A    between atoms: _155  and  _156
REMARK   64  A    between atoms: _155  and  _158
REMARK   65  A    between atoms: _158  and  _159
REMARK   66  A    between atoms: _162  and  _164
REMARK   67  A    between atoms: _164  and  _165
REMARK   68  A    between atoms: _164  and  _167
REMARK   69  A    between atoms: _167  and  _168
REMARK   70  A    between atoms: _170  and  _172
REMARK   71  A    between atoms: _172  and  _173
REMARK   72  A    between atoms: _176  and  _178
REMARK   73  A    between atoms: _178  and  _179
REMARK   74  A    between atoms: _178  and  _181
REMARK   75  A    between atoms: _181  and  _182
REMARK   76  A    between atoms: _182  and  _183
REMARK   77  A    between atoms: _186  and  _188
REMARK   78  A    between atoms: _188  and  _189
REMARK   79  A    between atoms: _188  and  _191
REMARK   80  A    between atoms: _191  and  _192
REMARK   81  A    between atoms: _192  and  _193
REMARK   82  A    between atoms: _195  and  _197
REMARK   83  A    between atoms: _197  and  _198
REMARK   84  A    between atoms: _197  and  _200
REMARK   85  A    between atoms: _200  and  _201
REMARK   86  A    between atoms: _206  and  _207
REMARK   87  A    between atoms: _209  and  _211
REMARK   88  A    between atoms: _211  and  _212
REMARK   89  A    between atoms: _211  and  _214
REMARK   90  A    between atoms: _214  and  _215
REMARK   91  A    between atoms: _215  and  _216
REMARK   92  A    between atoms: _216  and  _217
REMARK   93  A    between atoms: _216  and  _218
REMARK   94  A    between atoms: _217  and  MG_286
REMARK   95  A    between atoms: _221  and  _223
REMARK   96  A    between atoms: _223  and  _224
REMARK   97  A    between atoms: _223  and  _226
REMARK   98  A    between atoms: _226  and  _227
REMARK   99  A    between atoms: _230  and  _232
REMARK  100  A    between atoms: _232  and  _233
REMARK  101  A    between atoms: _232  and  _235
REMARK  102  A    between atoms: _235  and  _236
REMARK  103  A    between atoms: _239  and  _241
REMARK  104  A    between atoms: _241  and  _242
REMARK  105  A    between atoms: _241  and  _244
REMARK  106  A    between atoms: _247  and  _249
REMARK  107  A    between atoms: _249  and  _250
REMARK  108  A    between atoms: _249  and  _252
REMARK  109  A    between atoms: _252  and  _253
REMARK  110  A    between atoms: _256  and  _258
REMARK  111  A    between atoms: _258  and  _259
REMARK  112  A    between atoms: _258  and  _261
REMARK  113  A    between atoms: _261  and  _262
REMARK  114  A    between atoms: _267  and  _269
REMARK  115  A    between atoms: _269  and  _270
REMARK  116  A    between atoms: _269  and  _272
REMARK  117  A    between atoms: _272  and  _273
REMARK  118  A    between atoms: _273  and  _274
REMARK  119  A    between atoms: _276  and  _278
REMARK  120  A    between atoms: _278  and  _279
REMARK  121  A    between atoms: _281  and  _283
REMARK  122  A    between atoms: _283  and  _284
REMARK                            x       y       z     vdW  Elec       q    Type
REMARK                         _______ _______ _______ _____ _____    ______ ____
ROOT
ATOM      1  O   HOH     1     -23.064  43.255   7.222  0.00  0.00    +0.000 OA
ENDROOT
TORSDOF 0
REMARK  Name = ../refined-set-2016/2cbz/2cbz_pocket.pdb
REMARK  122 active torsions:
REMARK  status: ('A' for Active; 'I' for Inactive)
REMARK    1  A    between atoms: _1  and  _3
REMARK    2  A    between atoms: _3  and  _4
REMARK    3  A    between atoms: _3  and  _6
REMARK    4  A    between atoms: _6  and  _7
REMARK    5  A    between atoms: _10  and  _12
REMARK    6  A    between atoms: _12  and  _13
REMARK    7  A    between atoms: _12  and  _15
REMARK    8  A    between atoms: _15  and  _16
REMARK    9  A    between atoms: _26  and  _28
REMARK   10  A    between atoms: _28  and  _29
REMARK   11  A    between atoms: _33  and  _34
REMARK   12  A    between atoms: _39  and  _41
REMARK   13  A    between atoms: _41  and  _42
REMARK   14  A    between atoms: _41  and  _44
REMARK   15  A    between atoms: _44  and  _45
REMARK   16  A    between atoms: _48  and  _50
REMARK   17  A    between atoms: _50  and  _51
REMARK   18  A    between atoms: _50  and  _53
REMARK   19  A    between atoms: _53  and  _54
REMARK   20  A    between atoms: _57  and  _59
REMARK   21  A    between atoms: _59  and  _60
REMARK   22  A    between atoms: _59  and  _62
REMARK   23  A    between atoms: _65  and  _67
REMARK   24  A    between atoms: _67  and  _68
REMARK   25  A    between atoms: _67  and  _70
REMARK   26  A    between atoms: _73  and  _75
REMARK   27  A    between atoms: _75  and  _76
REMARK   28  A    between atoms: _78  and  _80
REMARK   29  A    between atoms: _80  and  _81
REMARK   30  A    between atoms: _80  and  _83
REMARK   31  A    between atoms: _83  and  _84
REMARK   32  A    between atoms: _84  and  _85
REMARK   33  A    between atoms: _90  and  _92
REMARK   34  A    between atoms: _92  and  _93
REMARK   35  A    between atoms: _92  and  _95
REMARK   36  A    between atoms: _98  and  _100
REMARK   37  A    between atoms: _100  and  _101
REMARK   38  A    between atoms: _103  and  _105
REMARK   39  A    between atoms: _105  and  _106
REMARK   40  A    between atoms: _105  and  _108
REMARK   41  A    between atoms: _110  and  _112
REMARK   42  A    between atoms: _112  and  _113
REMARK   43  A    between atoms: _115  and  _117
REMARK   44  A    between atoms: _117  and  _118
REMARK   45  A    between atoms: _117  and  _120
REMARK   46  A    between atoms: _120  and  _121
REMARK   47  A    between atoms: _121  and  _122
REMARK   48  A    between atoms: _122  and  _123
REMARK   49  A    between atoms: _123  and  _124
REMARK   50  A    between atoms: _128  and  _130
REMARK   51  A    between atoms: _130  and  _131
REMARK   52  A    between atoms: _130  and  _133
REMARK   53  A    between atoms: _133  and  _134
REMARK   54  A    between atoms: _136  and  _138
REMARK   55  A    between atoms: _138  and  _139
REMARK   56  A    between atoms: _138  and  _141
REMARK   57  A    between atoms: _141  and  _142
REMARK   58  A    between atoms: _144  and  _146
REMARK   59  A    between atoms: _146  and  _147
REMARK   60  A    between atoms: _146  and  _149
REMARK   61  A    between atoms: _149  and  _150
REMARK   62  A    between atoms: _153  and  _155
REMARK   63  A    between atoms: _155  and  _156
REMARK   64  A    between atoms: _155  and  _158
REMARK   65  A    between atoms: _158  and  _159
REMARK   66  A    between atoms: _162  and  _164
REMARK   67  A    between atoms: _164  and  _165
REMARK   68  A    between atoms: _164  and  _167
REMARK   69  A    between atoms: _167  and  _168
REMARK   70  A    between atoms: _170  and  _172
REMARK   71  A    between atoms: _172  and  _173
REMARK   72  A    between atoms: _176  and  _178
REMARK   73  A    between atoms: _178  and  _179
REMARK   74  A    between atoms: _178  and  _181
REMARK   75  A    between atoms: _181  and  _182
REMARK   76  A    between atoms: _182  and  _183
REMARK   77  A    between atoms: _186  and  _188
REMARK   78  A    between atoms: _188  and  _189
REMARK   79  A    between atoms: _188  and  _191
REMARK   80  A    between atoms: _191  and  _192
REMARK   81  A    between atoms: _192  and  _193
REMARK   82  A    between atoms: _195  and  _197
REMARK   83  A    between atoms: _197  and  _198
REMARK   84  A    between atoms: _197  and  _200
REMARK   85  A    between atoms: _200  and  _201
REMARK   86  A    between atoms: _206  and  _207
REMARK   87  A    between atoms: _209  and  _211
REMARK   88  A    between atoms: _211  and  _212
REMARK   89  A    between atoms: _211  and  _214
REMARK   90  A    between atoms: _214  and  _215
REMARK   91  A    between atoms: _215  and  _216
REMARK   92  A    between atoms: _216  and  _217
REMARK   93  A    between atoms: _216  and  _218
REMARK   94  A    between atoms: _217  and  MG_286
REMARK   95  A    between atoms: _221  and  _223
REMARK   96  A    between atoms: _223  and  _224
REMARK   97  A    between atoms: _223  and  _226
REMARK   98  A    between atoms: _226  and  _227
REMARK   99  A    between atoms: _230  and  _232
REMARK  100  A    between atoms: _232  and  _233
REMARK  101  A    between atoms: _232  and  _235
REMARK  102  A    between atoms: _235  and  _236
REMARK  103  A    between atoms: _239  and  _241
REMARK  104  A    between atoms: _241  and  _242
REMARK  105  A    between atoms: _241  and  _244
REMARK  106  A    between atoms: _247  and  _249
REMARK  107  A    between atoms: _249  and  _250
REMARK  108  A    between atoms: _249  and  _252
REMARK  109  A    between atoms: _252  and  _253
REMARK  110  A    between atoms: _256  and  _258
REMARK  111  A    between atoms: _258  and  _259
REMARK  112  A    between atoms: _258  and  _261
REMARK  113  A    between atoms: _261  and  _262
REMARK  114  A    between atoms: _267  and  _269
REMARK  115  A    between atoms: _269  and  _270
REMARK  116  A    between atoms: _269  and  _272
REMARK  117  A    between atoms: _272  and  _273
REMARK  118  A    between atoms: _273  and  _274
REMARK  119  A    between atoms: _276  and  _278
REMARK  120  A    between atoms: _278  and  _279
REMARK  121  A    between atoms: _281  and  _283
REMARK  122  A    between atoms: _283  and  _284
REMARK                            x       y       z     vdW  Elec       q    Type
REMARK                         _______ _______ _______ _____ _____    ______ ____
ROOT
ATOM      1  O   HOH     1     -15.247  46.693  -4.831  0.00  0.00    +0.000 OA
ENDROOT
TORSDOF 0
REMARK  Name = ../refined-set-2016/2cbz/2cbz_pocket.pdb
REMARK  122 active torsions:
REMARK  status: ('A' for Active; 'I' for Inactive)
REMARK    1  A    between atoms: _1  and  _3
REMARK    2  A    between atoms: _3  and  _4
REMARK    3  A    between atoms: _3  and  _6
REMARK    4  A    between atoms: _6  and  _7
REMARK    5  A    between atoms: _10  and  _12
REMARK    6  A    between atoms: _12  and  _13
REMARK    7  A    between atoms: _12  and  _15
REMARK    8  A    between atoms: _15  and  _16
REMARK    9  A    between atoms: _26  and  _28
REMARK   10  A    between atoms: _28  and  _29
REMARK   11  A    between atoms: _33  and  _34
REMARK   12  A    between atoms: _39  and  _41
REMARK   13  A    between atoms: _41  and  _42
REMARK   14  A    between atoms: _41  and  _44
REMARK   15  A    between atoms: _44  and  _45
REMARK   16  A    between atoms: _48  and  _50
REMARK   17  A    between atoms: _50  and  _51
REMARK   18  A    between atoms: _50  and  _53
REMARK   19  A    between atoms: _53  and  _54
REMARK   20  A    between atoms: _57  and  _59
REMARK   21  A    between atoms: _59  and  _60
REMARK   22  A    between atoms: _59  and  _62
REMARK   23  A    between atoms: _65  and  _67
REMARK   24  A    between atoms: _67  and  _68
REMARK   25  A    between atoms: _67  and  _70
REMARK   26  A    between atoms: _73  and  _75
REMARK   27  A    between atoms: _75  and  _76
REMARK   28  A    between atoms: _78  and  _80
REMARK   29  A    between atoms: _80  and  _81
REMARK   30  A    between atoms: _80  and  _83
REMARK   31  A    between atoms: _83  and  _84
REMARK   32  A    between atoms: _84  and  _85
REMARK   33  A    between atoms: _90  and  _92
REMARK   34  A    between atoms: _92  and  _93
REMARK   35  A    between atoms: _92  and  _95
REMARK   36  A    between atoms: _98  and  _100
REMARK   37  A    between atoms: _100  and  _101
REMARK   38  A    between atoms: _103  and  _105
REMARK   39  A    between atoms: _105  and  _106
REMARK   40  A    between atoms: _105  and  _108
REMARK   41  A    between atoms: _110  and  _112
REMARK   42  A    between atoms: _112  and  _113
REMARK   43  A    between atoms: _115  and  _117
REMARK   44  A    between atoms: _117  and  _118
REMARK   45  A    between atoms: _117  and  _120
REMARK   46  A    between atoms: _120  and  _121
REMARK   47  A    between atoms: _121  and  _122
REMARK   48  A    between atoms: _122  and  _123
REMARK   49  A    between atoms: _123  and  _124
REMARK   50  A    between atoms: _128  and  _130
REMARK   51  A    between atoms: _130  and  _131
REMARK   52  A    between atoms: _130  and  _133
REMARK   53  A    between atoms: _133  and  _134
REMARK   54  A    between atoms: _136  and  _138
REMARK   55  A    between atoms: _138  and  _139
REMARK   56  A    between atoms: _138  and  _141
REMARK   57  A    between atoms: _141  and  _142
REMARK   58  A    between atoms: _144  and  _146
REMARK   59  A    between atoms: _146  and  _147
REMARK   60  A    between atoms: _146  and  _149
REMARK   61  A    between atoms: _149  and  _150
REMARK   62  A    between atoms: _153  and  _155
REMARK   63  A    between atoms: _155  and  _156
REMARK   64  A    between atoms: _155  and  _158
REMARK   65  A    between atoms: _158  and  _159
REMARK   66  A    between atoms: _162  and  _164
REMARK   67  A    between atoms: _164  and  _165
REMARK   68  A    between atoms: _164  and  _167
REMARK   69  A    between atoms: _167  and  _168
REMARK   70  A    between atoms: _170  and  _172
REMARK   71  A    between atoms: _172  and  _173
REMARK   72  A    between atoms: _176  and  _178
REMARK   73  A    between atoms: _178  and  _179
REMARK   74  A    between atoms: _178  and  _181
REMARK   75  A    between atoms: _181  and  _182
REMARK   76  A    between atoms: _182  and  _183
REMARK   77  A    between atoms: _186  and  _188
REMARK   78  A    between atoms: _188  and  _189
REMARK   79  A    between atoms: _188  and  _191
REMARK   80  A    between atoms: _191  and  _192
REMARK   81  A    between atoms: _192  and  _193
REMARK   82  A    between atoms: _195  and  _197
REMARK   83  A    between atoms: _197  and  _198
REMARK   84  A    between atoms: _197  and  _200
REMARK   85  A    between atoms: _200  and  _201
REMARK   86  A    between atoms: _206  and  _207
REMARK   87  A    between atoms: _209  and  _211
REMARK   88  A    between atoms: _211  and  _212
REMARK   89  A    between atoms: _211  and  _214
REMARK   90  A    between atoms: _214  and  _215
REMARK   91  A    between atoms: _215  and  _216
REMARK   92  A    between atoms: _216  and  _217
REMARK   93  A    between atoms: _216  and  _218
REMARK   94  A    between atoms: _217  and  MG_286
REMARK   95  A    between atoms: _221  and  _223
REMARK   96  A    between atoms: _223  and  _224
REMARK   97  A    between atoms: _223  and  _226
REMARK   98  A    between atoms: _226  and  _227
REMARK   99  A    between atoms: _230  and  _232
REMARK  100  A    between atoms: _232  and  _233
REMARK  101  A    between atoms: _232  and  _235
REMARK  102  A    between atoms: _235  and  _236
REMARK  103  A    between atoms: _239  and  _241
REMARK  104  A    between atoms: _241  and  _242
REMARK  105  A    between atoms: _241  and  _244
REMARK  106  A    between atoms: _247  and  _249
REMARK  107  A    between atoms: _249  and  _250
REMARK  108  A    between atoms: _249  and  _252
REMARK  109  A    between atoms: _252  and  _253
REMARK  110  A    between atoms: _256  and  _258
REMARK  111  A    between atoms: _258  and  _259
REMARK  112  A    between atoms: _258  and  _261
REMARK  113  A    between atoms: _261  and  _262
REMARK  114  A    between atoms: _267  and  _269
REMARK  115  A    between atoms: _269  and  _270
REMARK  116  A    between atoms: _269  and  _272
REMARK  117  A    between atoms: _272  and  _273
REMARK  118  A    between atoms: _273  and  _274
REMARK  119  A    between atoms: _276  and  _278
REMARK  120  A    between atoms: _278  and  _279
REMARK  121  A    between atoms: _281  and  _283
REMARK  122  A    between atoms: _283  and  _284
REMARK                            x       y       z     vdW  Elec       q    Type
REMARK                         _______ _______ _______ _____ _____    ______ ____
ROOT
ATOM      1  O   HOH     1     -15.824  43.507  -0.662  0.00  0.00    +0.000 OA
ENDROOT
TORSDOF 0
