REMARK  Name = ../refined-set-2016/3kdc/3kdc_pocket.pdb
REMARK  240 active torsions:
REMARK  status: ('A' for Active; 'I' for Inactive)
REMARK    1  A    between atoms: _1  and  _3
REMARK    2  A    between atoms: _3  and  _4
REMARK    3  A    between atoms: _3  and  _6
REMARK    4  A    between atoms: _6  and  _7
REMARK    5  A    between atoms: _7  and  _8
REMARK    6  A    between atoms: _8  and  _9
REMARK    7  A    between atoms: _18  and  _20
REMARK    8  A    between atoms: _20  and  _21
REMARK    9  A    between atoms: _20  and  _23
REMARK   10  A    between atoms: _23  and  _24
REMARK   11  A    between atoms: _27  and  _29
REMARK   12  A    between atoms: _29  and  _30
REMARK   13  A    between atoms: _29  and  _32
REMARK   14  A    between atoms: _32  and  _33
REMARK   15  A    between atoms: _36  and  _38
REMARK   16  A    between atoms: _38  and  _39
REMARK   17  A    between atoms: _38  and  _41
REMARK   18  A    between atoms: _41  and  _42
REMARK   19  A    between atoms: _45  and  _47
REMARK   20  A    between atoms: _47  and  _48
REMARK   21  A    between atoms: _47  and  _50
REMARK   22  A    between atoms: _50  and  _51
REMARK   23  A    between atoms: _54  and  _56
REMARK   24  A    between atoms: _56  and  _57
REMARK   25  A    between atoms: _59  and  _61
REMARK   26  A    between atoms: _61  and  _62
REMARK   27  A    between atoms: _65  and  _67
REMARK   28  A    between atoms: _67  and  _68
REMARK   29  A    between atoms: _67  and  _70
REMARK   30  A    between atoms: _70  and  _71
REMARK   31  A    between atoms: _74  and  _76
REMARK   32  A    between atoms: _76  and  _77
REMARK   33  A    between atoms: _76  and  _79
REMARK   34  A    between atoms: _79  and  _80
REMARK   35  A    between atoms: _83  and  _85
REMARK   36  A    between atoms: _85  and  _86
REMARK   37  A    between atoms: _85  and  _88
REMARK   38  A    between atoms: _88  and  _89
REMARK   39  A    between atoms: _92  and  _94
REMARK   40  A    between atoms: _94  and  _95
REMARK   41  A    between atoms: _94  and  _97
REMARK   42  A    between atoms: _100  and  _102
REMARK   43  A    between atoms: _102  and  _103
REMARK   44  A    between atoms: _102  and  _105
REMARK   45  A    between atoms: _105  and  _106
REMARK   46  A    between atoms: _109  and  _111
REMARK   47  A    between atoms: _111  and  _112
REMARK   48  A    between atoms: _111  and  _114
REMARK   49  A    between atoms: _114  and  _115
REMARK   50  A    between atoms: _115  and  _116
REMARK   51  A    between atoms: _116  and  _117
REMARK   52  A    between atoms: _117  and  _118
REMARK   53  A    between atoms: _122  and  _124
REMARK   54  A    between atoms: _124  and  _125
REMARK   55  A    between atoms: _124  and  _127
REMARK   56  A    between atoms: _127  and  _128
REMARK   57  A    between atoms: _128  and  _129
REMARK   58  A    between atoms: _131  and  _133
REMARK   59  A    between atoms: _133  and  _134
REMARK   60  A    between atoms: _133  and  _136
REMARK   61  A    between atoms: _136  and  _137
REMARK   62  A    between atoms: _140  and  _142
REMARK   63  A    between atoms: _142  and  _143
REMARK   64  A    between atoms: _145  and  _147
REMARK   65  A    between atoms: _147  and  _148
REMARK   66  A    between atoms: _150  and  _152
REMARK   67  A    between atoms: _152  and  _153
REMARK   68  A    between atoms: _152  and  _155
REMARK   69  A    between atoms: _155  and  _156
REMARK   70  A    between atoms: _159  and  _161
REMARK   71  A    between atoms: _161  and  _162
REMARK   72  A    between atoms: _164  and  _166
REMARK   73  A    between atoms: _166  and  _167
REMARK   74  A    between atoms: _169  and  _171
REMARK   75  A    between atoms: _171  and  _172
REMARK   76  A    between atoms: _171  and  _174
REMARK   77  A    between atoms: _174  and  _175
REMARK   78  A    between atoms: _181  and  _183
REMARK   79  A    between atoms: _183  and  _184
REMARK   80  A    between atoms: _183  and  _186
REMARK   81  A    between atoms: _186  and  _187
REMARK   82  A    between atoms: _190  and  _192
REMARK   83  A    between atoms: _192  and  _193
REMARK   84  A    between atoms: _192  and  _195
REMARK   85  A    between atoms: _198  and  _200
REMARK   86  A    between atoms: _200  and  _201
REMARK   87  A    between atoms: _200  and  _203
REMARK   88  A    between atoms: _203  and  _204
REMARK   89  A    between atoms: _207  and  _209
REMARK   90  A    between atoms: _209  and  _210
REMARK   91  A    between atoms: _209  and  _212
REMARK   92  A    between atoms: _212  and  _213
REMARK   93  A    between atoms: _217  and  _218
REMARK   94  A    between atoms: _223  and  _225
REMARK   95  A    between atoms: _225  and  _226
REMARK   96  A    between atoms: _225  and  _228
REMARK   97  A    between atoms: _231  and  _233
REMARK   98  A    between atoms: _233  and  _234
REMARK   99  A    between atoms: _233  and  _236
REMARK  100  A    between atoms: _236  and  _237
REMARK  101  A    between atoms: _242  and  _244
REMARK  102  A    between atoms: _244  and  _245
REMARK  103  A    between atoms: _244  and  _247
REMARK  104  A    between atoms: _247  and  _248
REMARK  105  A    between atoms: _251  and  _253
REMARK  106  A    between atoms: _253  and  _254
REMARK  107  A    between atoms: _253  and  _256
REMARK  108  A    between atoms: _256  and  _257
REMARK  109  A    between atoms: _260  and  _262
REMARK  110  A    between atoms: _262  and  _263
REMARK  111  A    between atoms: _265  and  _267
REMARK  112  A    between atoms: _267  and  _268
REMARK  113  A    between atoms: _267  and  _270
REMARK  114  A    between atoms: _270  and  _271
REMARK  115  A    between atoms: _271  and  _272
REMARK  116  A    between atoms: _272  and  _273
REMARK  117  A    between atoms: _282  and  _284
REMARK  118  A    between atoms: _284  and  _285
REMARK  119  A    between atoms: _284  and  _287
REMARK  120  A    between atoms: _287  and  _288
REMARK  121  A    between atoms: _293  and  _295
REMARK  122  A    between atoms: _295  and  _296
REMARK  123  A    between atoms: _295  and  _298
REMARK  124  A    between atoms: _298  and  _299
REMARK  125  A    between atoms: _299  and  _300
REMARK  126  A    between atoms: _300  and  _301
REMARK  127  A    between atoms: _310  and  _312
REMARK  128  A    between atoms: _312  and  _313
REMARK  129  A    between atoms: _312  and  _315
REMARK  130  A    between atoms: _315  and  _316
REMARK  131  A    between atoms: _319  and  _321
REMARK  132  A    between atoms: _321  and  _322
REMARK  133  A    between atoms: _321  and  _324
REMARK  134  A    between atoms: _324  and  _325
REMARK  135  A    between atoms: _328  and  _330
REMARK  136  A    between atoms: _330  and  _331
REMARK  137  A    between atoms: _330  and  _333
REMARK  138  A    between atoms: _333  and  _334
REMARK  139  A    between atoms: _337  and  _339
REMARK  140  A    between atoms: _339  and  _340
REMARK  141  A    between atoms: _339  and  _342
REMARK  142  A    between atoms: _342  and  _343
REMARK  143  A    between atoms: _346  and  _348
REMARK  144  A    between atoms: _348  and  _349
REMARK  145  A    between atoms: _348  and  _351
REMARK  146  A    between atoms: _351  and  _352
REMARK  147  A    between atoms: _355  and  _357
REMARK  148  A    between atoms: _357  and  _358
REMARK  149  A    between atoms: _360  and  _362
REMARK  150  A    between atoms: _362  and  _363
REMARK  151  A    between atoms: _366  and  _368
REMARK  152  A    between atoms: _368  and  _369
REMARK  153  A    between atoms: _368  and  _371
REMARK  154  A    between atoms: _371  and  _372
REMARK  155  A    between atoms: _375  and  _377
REMARK  156  A    between atoms: _377  and  _378
REMARK  157  A    between atoms: _377  and  _380
REMARK  158  A    between atoms: _380  and  _381
REMARK  159  A    between atoms: _384  and  _386
REMARK  160  A    between atoms: _386  and  _387
REMARK  161  A    between atoms: _386  and  _389
REMARK  162  A    between atoms: _389  and  _390
REMARK  163  A    between atoms: _393  and  _395
REMARK  164  A    between atoms: _395  and  _396
REMARK  165  A    between atoms: _395  and  _398
REMARK  166  A    between atoms: _401  and  _403
REMARK  167  A    between atoms: _403  and  _404
REMARK  168  A    between atoms: _403  and  _406
REMARK  169  A    between atoms: _406  and  _407
REMARK  170  A    between atoms: _407  and  _408
REMARK  171  A    between atoms: _408  and  _409
REMARK  172  A    between atoms: _409  and  _410
REMARK  173  A    between atoms: _414  and  _416
REMARK  174  A    between atoms: _416  and  _417
REMARK  175  A    between atoms: _416  and  _419
REMARK  176  A    between atoms: _419  and  _420
REMARK  177  A    between atoms: _420  and  _421
REMARK  178  A    between atoms: _423  and  _425
REMARK  179  A    between atoms: _425  and  _426
REMARK  180  A    between atoms: _425  and  _428
REMARK  181  A    between atoms: _428  and  _429
REMARK  182  A    between atoms: _432  and  _434
REMARK  183  A    between atoms: _434  and  _435
REMARK  184  A    between atoms: _437  and  _439
REMARK  185  A    between atoms: _439  and  _440
REMARK  186  A    between atoms: _442  and  _444
REMARK  187  A    between atoms: _444  and  _445
REMARK  188  A    between atoms: _444  and  _447
REMARK  189  A    between atoms: _447  and  _448
REMARK  190  A    between atoms: _451  and  _453
REMARK  191  A    between atoms: _453  and  _454
REMARK  192  A    between atoms: _456  and  _458
REMARK  193  A    between atoms: _458  and  _459
REMARK  194  A    between atoms: _461  and  _463
REMARK  195  A    between atoms: _463  and  _464
REMARK  196  A    between atoms: _463  and  _466
REMARK  197  A    between atoms: _466  and  _467
REMARK  198  A    between atoms: _473  and  _475
REMARK  199  A    between atoms: _475  and  _476
REMARK  200  A    between atoms: _475  and  _478
REMARK  201  A    between atoms: _478  and  _479
REMARK  202  A    between atoms: _482  and  _484
REMARK  203  A    between atoms: _484  and  _485
REMARK  204  A    between atoms: _484  and  _487
REMARK  205  A    between atoms: _490  and  _492
REMARK  206  A    between atoms: _492  and  _493
REMARK  207  A    between atoms: _492  and  _495
REMARK  208  A    between atoms: _495  and  _496
REMARK  209  A    between atoms: _499  and  _501
REMARK  210  A    between atoms: _501  and  _502
REMARK  211  A    between atoms: _501  and  _504
REMARK  212  A    between atoms: _504  and  _505
REMARK  213  A    between atoms: _509  and  _510
REMARK  214  A    between atoms: _515  and  _517
REMARK  215  A    between atoms: _517  and  _518
REMARK  216  A    between atoms: _517  and  _520
REMARK  217  A    between atoms: _523  and  _525
REMARK  218  A    between atoms: _525  and  _526
REMARK  219  A    between atoms: _525  and  _528
REMARK  220  A    between atoms: _528  and  _529
REMARK  221  A    between atoms: _534  and  _536
REMARK  222  A    between atoms: _536  and  _537
REMARK  223  A    between atoms: _536  and  _539
REMARK  224  A    between atoms: _539  and  _540
REMARK  225  A    between atoms: _543  and  _545
REMARK  226  A    between atoms: _545  and  _546
REMARK  227  A    between atoms: _545  and  _548
REMARK  228  A    between atoms: _548  and  _549
REMARK  229  A    between atoms: _552  and  _554
REMARK  230  A    between atoms: _554  and  _555
REMARK  231  A    between atoms: _557  and  _559
REMARK  232  A    between atoms: _559  and  _560
REMARK  233  A    between atoms: _559  and  _562
REMARK  234  A    between atoms: _562  and  _563
REMARK  235  A    between atoms: _563  and  _564
REMARK  236  A    between atoms: _564  and  _565
REMARK  237  A    between atoms: _574  and  _576
REMARK  238  A    between atoms: _576  and  _577
REMARK  239  A    between atoms: _576  and  _579
REMARK  240  A    between atoms: _579  and  _580
REMARK                            x       y       z     vdW  Elec       q    Type
REMARK                         _______ _______ _______ _____ _____    ______ ____
ROOT
ATOM      1  NE  ARG A   1       6.090  20.112  15.436  0.00  0.00    -0.265 N 
ATOM      2  HE  ARG A   1       6.405  20.074  16.426  0.00  0.00    +0.259 HD
ATOM      3  CZ  ARG A   1       6.196  18.998  14.712  0.00  0.00    +0.342 C 
ATOM      4  NH2 ARG A   1       6.690  17.897  15.264  0.00  0.00    -0.292 N 
ATOM      5 HH21 ARG A   1       6.993  17.905  16.259  0.00  0.00    +0.255 HD
ATOM      6 HH22 ARG A   1       6.774  17.026  14.702  0.00  0.00    +0.255 HD
ATOM      7  NH1 ARG A   1       5.806  18.974  13.440  0.00  0.00    -0.292 N 
ATOM      8 HH11 ARG A   1       5.413  19.831  13.000  0.00  0.00    +0.255 HD
ATOM      9 HH12 ARG A   1       5.894  18.098  12.886  0.00  0.00    +0.255 HD
ENDROOT
BRANCH   1  10
ATOM     10  CD  ARG A   1       5.563  21.386  14.942  0.00  0.00    +0.174 C 
BRANCH  10  11
ATOM     11  CG  ARG A   1       5.184  22.299  16.098  0.00  0.00    +0.045 C 
BRANCH  11  12
ATOM     12  CB  ARG A   1       4.618  23.621  15.623  0.00  0.00    +0.029 C 
BRANCH  12  13
ATOM     13  CA  ARG A   1       3.999  24.458  16.742  0.00  0.00    +0.133 C 
BRANCH  13  14
ATOM     14  N   ARG A   1       2.783  23.815  17.243  0.00  0.00    -0.239 NA
ATOM     15  H   ARG A   1       2.466  22.929  16.801  0.00  0.00    +0.142 HD
ENDBRANCH  13  14
BRANCH  13  16
ATOM     16  C   ARG A   1       3.703  25.880  16.258  0.00  0.00    +0.224 C 
ATOM     17  O   ARG A   1       2.753  26.081  15.502  0.00  0.00    -0.287 OA
ENDBRANCH  13  16
ENDBRANCH  12  13
ENDBRANCH  11  12
ENDBRANCH  10  11
ENDBRANCH   1  10
TORSDOF 6
REMARK  Name = ../refined-set-2016/3kdc/3kdc_pocket.pdb
REMARK  240 active torsions:
REMARK  status: ('A' for Active; 'I' for Inactive)
REMARK    1  A    between atoms: _1  and  _3
REMARK    2  A    between atoms: _3  and  _4
REMARK    3  A    between atoms: _3  and  _6
REMARK    4  A    between atoms: _6  and  _7
REMARK    5  A    between atoms: _7  and  _8
REMARK    6  A    between atoms: _8  and  _9
REMARK    7  A    between atoms: _18  and  _20
REMARK    8  A    between atoms: _20  and  _21
REMARK    9  A    between atoms: _20  and  _23
REMARK   10  A    between atoms: _23  and  _24
REMARK   11  A    between atoms: _27  and  _29
REMARK   12  A    between atoms: _29  and  _30
REMARK   13  A    between atoms: _29  and  _32
REMARK   14  A    between atoms: _32  and  _33
REMARK   15  A    between atoms: _36  and  _38
REMARK   16  A    between atoms: _38  and  _39
REMARK   17  A    between atoms: _38  and  _41
REMARK   18  A    between atoms: _41  and  _42
REMARK   19  A    between atoms: _45  and  _47
REMARK   20  A    between atoms: _47  and  _48
REMARK   21  A    between atoms: _47  and  _50
REMARK   22  A    between atoms: _50  and  _51
REMARK   23  A    between atoms: _54  and  _56
REMARK   24  A    between atoms: _56  and  _57
REMARK   25  A    between atoms: _59  and  _61
REMARK   26  A    between atoms: _61  and  _62
REMARK   27  A    between atoms: _65  and  _67
REMARK   28  A    between atoms: _67  and  _68
REMARK   29  A    between atoms: _67  and  _70
REMARK   30  A    between atoms: _70  and  _71
REMARK   31  A    between atoms: _74  and  _76
REMARK   32  A    between atoms: _76  and  _77
REMARK   33  A    between atoms: _76  and  _79
REMARK   34  A    between atoms: _79  and  _80
REMARK   35  A    between atoms: _83  and  _85
REMARK   36  A    between atoms: _85  and  _86
REMARK   37  A    between atoms: _85  and  _88
REMARK   38  A    between atoms: _88  and  _89
REMARK   39  A    between atoms: _92  and  _94
REMARK   40  A    between atoms: _94  and  _95
REMARK   41  A    between atoms: _94  and  _97
REMARK   42  A    between atoms: _100  and  _102
REMARK   43  A    between atoms: _102  and  _103
REMARK   44  A    between atoms: _102  and  _105
REMARK   45  A    between atoms: _105  and  _106
REMARK   46  A    between atoms: _109  and  _111
REMARK   47  A    between atoms: _111  and  _112
REMARK   48  A    between atoms: _111  and  _114
REMARK   49  A    between atoms: _114  and  _115
REMARK   50  A    between atoms: _115  and  _116
REMARK   51  A    between atoms: _116  and  _117
REMARK   52  A    between atoms: _117  and  _118
REMARK   53  A    between atoms: _122  and  _124
REMARK   54  A    between atoms: _124  and  _125
REMARK   55  A    between atoms: _124  and  _127
REMARK   56  A    between atoms: _127  and  _128
REMARK   57  A    between atoms: _128  and  _129
REMARK   58  A    between atoms: _131  and  _133
REMARK   59  A    between atoms: _133  and  _134
REMARK   60  A    between atoms: _133  and  _136
REMARK   61  A    between atoms: _136  and  _137
REMARK   62  A    between atoms: _140  and  _142
REMARK   63  A    between atoms: _142  and  _143
REMARK   64  A    between atoms: _145  and  _147
REMARK   65  A    between atoms: _147  and  _148
REMARK   66  A    between atoms: _150  and  _152
REMARK   67  A    between atoms: _152  and  _153
REMARK   68  A    between atoms: _152  and  _155
REMARK   69  A    between atoms: _155  and  _156
REMARK   70  A    between atoms: _159  and  _161
REMARK   71  A    between atoms: _161  and  _162
REMARK   72  A    between atoms: _164  and  _166
REMARK   73  A    between atoms: _166  and  _167
REMARK   74  A    between atoms: _169  and  _171
REMARK   75  A    between atoms: _171  and  _172
REMARK   76  A    between atoms: _171  and  _174
REMARK   77  A    between atoms: _174  and  _175
REMARK   78  A    between atoms: _181  and  _183
REMARK   79  A    between atoms: _183  and  _184
REMARK   80  A    between atoms: _183  and  _186
REMARK   81  A    between atoms: _186  and  _187
REMARK   82  A    between atoms: _190  and  _192
REMARK   83  A    between atoms: _192  and  _193
REMARK   84  A    between atoms: _192  and  _195
REMARK   85  A    between atoms: _198  and  _200
REMARK   86  A    between atoms: _200  and  _201
REMARK   87  A    between atoms: _200  and  _203
REMARK   88  A    between atoms: _203  and  _204
REMARK   89  A    between atoms: _207  and  _209
REMARK   90  A    between atoms: _209  and  _210
REMARK   91  A    between atoms: _209  and  _212
REMARK   92  A    between atoms: _212  and  _213
REMARK   93  A    between atoms: _217  and  _218
REMARK   94  A    between atoms: _223  and  _225
REMARK   95  A    between atoms: _225  and  _226
REMARK   96  A    between atoms: _225  and  _228
REMARK   97  A    between atoms: _231  and  _233
REMARK   98  A    between atoms: _233  and  _234
REMARK   99  A    between atoms: _233  and  _236
REMARK  100  A    between atoms: _236  and  _237
REMARK  101  A    between atoms: _242  and  _244
REMARK  102  A    between atoms: _244  and  _245
REMARK  103  A    between atoms: _244  and  _247
REMARK  104  A    between atoms: _247  and  _248
REMARK  105  A    between atoms: _251  and  _253
REMARK  106  A    between atoms: _253  and  _254
REMARK  107  A    between atoms: _253  and  _256
REMARK  108  A    between atoms: _256  and  _257
REMARK  109  A    between atoms: _260  and  _262
REMARK  110  A    between atoms: _262  and  _263
REMARK  111  A    between atoms: _265  and  _267
REMARK  112  A    between atoms: _267  and  _268
REMARK  113  A    between atoms: _267  and  _270
REMARK  114  A    between atoms: _270  and  _271
REMARK  115  A    between atoms: _271  and  _272
REMARK  116  A    between atoms: _272  and  _273
REMARK  117  A    between atoms: _282  and  _284
REMARK  118  A    between atoms: _284  and  _285
REMARK  119  A    between atoms: _284  and  _287
REMARK  120  A    between atoms: _287  and  _288
REMARK  121  A    between atoms: _293  and  _295
REMARK  122  A    between atoms: _295  and  _296
REMARK  123  A    between atoms: _295  and  _298
REMARK  124  A    between atoms: _298  and  _299
REMARK  125  A    between atoms: _299  and  _300
REMARK  126  A    between atoms: _300  and  _301
REMARK  127  A    between atoms: _310  and  _312
REMARK  128  A    between atoms: _312  and  _313
REMARK  129  A    between atoms: _312  and  _315
REMARK  130  A    between atoms: _315  and  _316
REMARK  131  A    between atoms: _319  and  _321
REMARK  132  A    between atoms: _321  and  _322
REMARK  133  A    between atoms: _321  and  _324
REMARK  134  A    between atoms: _324  and  _325
REMARK  135  A    between atoms: _328  and  _330
REMARK  136  A    between atoms: _330  and  _331
REMARK  137  A    between atoms: _330  and  _333
REMARK  138  A    between atoms: _333  and  _334
REMARK  139  A    between atoms: _337  and  _339
REMARK  140  A    between atoms: _339  and  _340
REMARK  141  A    between atoms: _339  and  _342
REMARK  142  A    between atoms: _342  and  _343
REMARK  143  A    between atoms: _346  and  _348
REMARK  144  A    between atoms: _348  and  _349
REMARK  145  A    between atoms: _348  and  _351
REMARK  146  A    between atoms: _351  and  _352
REMARK  147  A    between atoms: _355  and  _357
REMARK  148  A    between atoms: _357  and  _358
REMARK  149  A    between atoms: _360  and  _362
REMARK  150  A    between atoms: _362  and  _363
REMARK  151  A    between atoms: _366  and  _368
REMARK  152  A    between atoms: _368  and  _369
REMARK  153  A    between atoms: _368  and  _371
REMARK  154  A    between atoms: _371  and  _372
REMARK  155  A    between atoms: _375  and  _377
REMARK  156  A    between atoms: _377  and  _378
REMARK  157  A    between atoms: _377  and  _380
REMARK  158  A    between atoms: _380  and  _381
REMARK  159  A    between atoms: _384  and  _386
REMARK  160  A    between atoms: _386  and  _387
REMARK  161  A    between atoms: _386  and  _389
REMARK  162  A    between atoms: _389  and  _390
REMARK  163  A    between atoms: _393  and  _395
REMARK  164  A    between atoms: _395  and  _396
REMARK  165  A    between atoms: _395  and  _398
REMARK  166  A    between atoms: _401  and  _403
REMARK  167  A    between atoms: _403  and  _404
REMARK  168  A    between atoms: _403  and  _406
REMARK  169  A    between atoms: _406  and  _407
REMARK  170  A    between atoms: _407  and  _408
REMARK  171  A    between atoms: _408  and  _409
REMARK  172  A    between atoms: _409  and  _410
REMARK  173  A    between atoms: _414  and  _416
REMARK  174  A    between atoms: _416  and  _417
REMARK  175  A    between atoms: _416  and  _419
REMARK  176  A    between atoms: _419  and  _420
REMARK  177  A    between atoms: _420  and  _421
REMARK  178  A    between atoms: _423  and  _425
REMARK  179  A    between atoms: _425  and  _426
REMARK  180  A    between atoms: _425  and  _428
REMARK  181  A    between atoms: _428  and  _429
REMARK  182  A    between atoms: _432  and  _434
REMARK  183  A    between atoms: _434  and  _435
REMARK  184  A    between atoms: _437  and  _439
REMARK  185  A    between atoms: _439  and  _440
REMARK  186  A    between atoms: _442  and  _444
REMARK  187  A    between atoms: _444  and  _445
REMARK  188  A    between atoms: _444  and  _447
REMARK  189  A    between atoms: _447  and  _448
REMARK  190  A    between atoms: _451  and  _453
REMARK  191  A    between atoms: _453  and  _454
REMARK  192  A    between atoms: _456  and  _458
REMARK  193  A    between atoms: _458  and  _459
REMARK  194  A    between atoms: _461  and  _463
REMARK  195  A    between atoms: _463  and  _464
REMARK  196  A    between atoms: _463  and  _466
REMARK  197  A    between atoms: _466  and  _467
REMARK  198  A    between atoms: _473  and  _475
REMARK  199  A    between atoms: _475  and  _476
REMARK  200  A    between atoms: _475  and  _478
REMARK  201  A    between atoms: _478  and  _479
REMARK  202  A    between atoms: _482  and  _484
REMARK  203  A    between atoms: _484  and  _485
REMARK  204  A    between atoms: _484  and  _487
REMARK  205  A    between atoms: _490  and  _492
REMARK  206  A    between atoms: _492  and  _493
REMARK  207  A    between atoms: _492  and  _495
REMARK  208  A    between atoms: _495  and  _496
REMARK  209  A    between atoms: _499  and  _501
REMARK  210  A    between atoms: _501  and  _502
REMARK  211  A    between atoms: _501  and  _504
REMARK  212  A    between atoms: _504  and  _505
REMARK  213  A    between atoms: _509  and  _510
REMARK  214  A    between atoms: _515  and  _517
REMARK  215  A    between atoms: _517  and  _518
REMARK  216  A    between atoms: _517  and  _520
REMARK  217  A    between atoms: _523  and  _525
REMARK  218  A    between atoms: _525  and  _526
REMARK  219  A    between atoms: _525  and  _528
REMARK  220  A    between atoms: _528  and  _529
REMARK  221  A    between atoms: _534  and  _536
REMARK  222  A    between atoms: _536  and  _537
REMARK  223  A    between atoms: _536  and  _539
REMARK  224  A    between atoms: _539  and  _540
REMARK  225  A    between atoms: _543  and  _545
REMARK  226  A    between atoms: _545  and  _546
REMARK  227  A    between atoms: _545  and  _548
REMARK  228  A    between atoms: _548  and  _549
REMARK  229  A    between atoms: _552  and  _554
REMARK  230  A    between atoms: _554  and  _555
REMARK  231  A    between atoms: _557  and  _559
REMARK  232  A    between atoms: _559  and  _560
REMARK  233  A    between atoms: _559  and  _562
REMARK  234  A    between atoms: _562  and  _563
REMARK  235  A    between atoms: _563  and  _564
REMARK  236  A    between atoms: _564  and  _565
REMARK  237  A    between atoms: _574  and  _576
REMARK  238  A    between atoms: _576  and  _577
REMARK  239  A    between atoms: _576  and  _579
REMARK  240  A    between atoms: _579  and  _580
REMARK                            x       y       z     vdW  Elec       q    Type
REMARK                         _______ _______ _______ _____ _____    ______ ____
ROOT
ATOM      1  C   ALA A   6      18.349  30.267  17.449  0.00  0.00    +0.241 C 
ATOM      2  O   ALA A   6      17.624  31.263  17.508  0.00  0.00    -0.273 OA
ATOM      3  N   ASP A   7      19.682  30.330  17.415  0.00  0.00    -0.297 N 
ATOM      4  H   ASP A   7      20.226  29.443  17.419  0.00  0.00    +0.150 HD
ENDROOT
BRANCH   1   5
ATOM      5  CA  ALA A   6      17.731  28.873  17.396  0.00  0.00    +0.149 C 
ATOM      6  CB  ALA A   6      16.997  28.691  16.087  0.00  0.00    +0.031 C 
BRANCH   5   9
ATOM      7  C   GLY A   5      17.167  28.033  19.634  0.00  0.00    +0.243 C 
ATOM      8  O   GLY A   5      18.297  27.590  19.834  0.00  0.00    -0.273 OA
ATOM      9  N   ALA A   6      16.812  28.652  18.509  0.00  0.00    -0.297 N 
ATOM     10  H   ALA A   6      15.834  28.994  18.419  0.00  0.00    +0.150 HD
BRANCH   7  11
ATOM     11  CA  GLY A   5      16.082  27.885  20.692  0.00  0.00    +0.176 C 
BRANCH  11  14
ATOM     12  C   THR A   4      14.846  29.994  20.782  0.00  0.00    +0.243 C 
ATOM     13  O   THR A   4      15.779  30.574  21.342  0.00  0.00    -0.273 OA
ATOM     14  N   GLY A   5      14.899  28.708  20.444  0.00  0.00    -0.295 N 
ATOM     15  H   GLY A   5      14.071  28.274  19.988  0.00  0.00    +0.150 HD
BRANCH  12  16
ATOM     16  CA  THR A   4      13.549  30.746  20.432  0.00  0.00    +0.176 C 
BRANCH  16  18
ATOM     17  C   ASP A   3      13.043  29.976  18.148  0.00  0.00    +0.241 C 
ATOM     18  N   THR A   4      12.712  30.047  19.438  0.00  0.00    -0.295 N 
ATOM     19  H   THR A   4      11.832  29.593  19.755  0.00  0.00    +0.150 HD
ATOM     20  O   ASP A   3      14.080  30.464  17.687  0.00  0.00    -0.273 OA
BRANCH  17  21
ATOM     21  CA  ASP A   3      12.073  29.208  17.249  0.00  0.00    +0.160 C 
BRANCH  21  24
ATOM     22  C   LEU A   2       9.905  30.039  16.514  0.00  0.00    +0.241 C 
ATOM     23  O   LEU A   2       9.300  29.467  17.423  0.00  0.00    -0.273 OA
ATOM     24  N   ASP A   3      11.231  30.076  16.433  0.00  0.00    -0.297 N 
ATOM     25  H   ASP A   3      11.680  30.741  15.771  0.00  0.00    +0.150 HD
BRANCH  22  26
ATOM     26  CA  LEU A   2       9.152  30.755  15.399  0.00  0.00    +0.149 C 
BRANCH  26  28
ATOM     27  C   LEU A   1       9.347  29.082  13.631  0.00  0.00    +0.238 C 
ATOM     28  N   LEU A   2       8.585  29.749  14.497  0.00  0.00    -0.297 N 
ATOM     29  H   LEU A   2       7.565  29.551  14.534  0.00  0.00    +0.150 HD
ATOM     30  O   LEU A   1      10.538  29.329  13.459  0.00  0.00    -0.274 OA
BRANCH  27  31
ATOM     31  CA  LEU A   1       8.667  27.969  12.841  0.00  0.00    +0.145 C 
BRANCH  31  32
ATOM     32  N   LEU A   1       8.879  28.124  11.407  0.00  0.00    -0.238 NA
ATOM     33  H   LEU A   1       9.750  27.737  10.990  0.00  0.00    +0.142 HD
ENDBRANCH  31  32
BRANCH  31  34
ATOM     34  CB  LEU A   1       9.210  26.611  13.287  0.00  0.00    +0.026 C 
BRANCH  34  35
ATOM     35  CG  LEU A   1       8.999  26.147  14.726  0.00  0.00    +0.002 C 
ATOM     36  CD2 LEU A   1      10.020  25.081  15.021  0.00  0.00    +0.000 C 
ATOM     37  CD1 LEU A   1       7.615  25.577  14.891  0.00  0.00    +0.000 C 
ENDBRANCH  34  35
ENDBRANCH  31  34
ENDBRANCH  27  31
ENDBRANCH  26  28
BRANCH  26  38
ATOM     38  CB  LEU A   2       8.068  31.680  15.964  0.00  0.00    +0.029 C 
BRANCH  38  39
ATOM     39  CG  LEU A   2       7.199  32.467  14.974  0.00  0.00    +0.002 C 
ATOM     40  CD2 LEU A   2       6.179  33.293  15.728  0.00  0.00    +0.000 C 
ATOM     41  CD1 LEU A   2       8.021  33.357  14.039  0.00  0.00    +0.000 C 
ENDBRANCH  38  39
ENDBRANCH  26  38
ENDBRANCH  22  26
ENDBRANCH  21  24
BRANCH  21  42
ATOM     42  CB  ASP A   3      12.835  28.246  16.333  0.00  0.00    +0.143 C 
BRANCH  42  43
ATOM     43  CG  ASP A   3      13.582  27.169  17.093  0.00  0.00    +0.367 C 
ATOM     44  OD2 ASP A   3      13.690  27.234  18.336  0.00  0.00    -0.246 OA
ATOM     45  OD1 ASP A   3      14.074  26.242  16.429  0.00  0.00    -0.246 OA
ENDBRANCH  42  43
ENDBRANCH  21  42
ENDBRANCH  17  21
ENDBRANCH  16  18
BRANCH  16  46
ATOM     46  CB  THR A   4      12.758  31.050  21.721  0.00  0.00    +0.137 C 
ATOM     47  CG2 THR A   4      11.558  31.969  21.426  0.00  0.00    +0.034 C 
BRANCH  46  48
ATOM     48  OG1 THR A   4      12.293  29.824  22.299  0.00  0.00    -0.382 OA
ATOM     49  HG1 THR A   4      13.068  29.248  22.516  0.00  0.00    +0.210 HD
ENDBRANCH  46  48
ENDBRANCH  16  46
ENDBRANCH  12  16
ENDBRANCH  11  14
ENDBRANCH   7  11
ENDBRANCH   5   9
ENDBRANCH   1   5
BRANCH   3  50
ATOM     50  CA  ASP A   7      20.409  31.605  17.372  0.00  0.00    +0.160 C 
BRANCH  50  51
ATOM     51  C   ASP A   7      20.158  32.341  16.063  0.00  0.00    +0.241 C 
ATOM     52  O   ASP A   7      19.992  33.564  16.045  0.00  0.00    -0.273 OA
ATOM     53  N   ASP A   8      20.110  31.572  14.978  0.00  0.00    -0.297 N 
ATOM     54  H   ASP A   8      20.119  30.540  15.103  0.00  0.00    +0.150 HD
BRANCH  53  55
ATOM     55  CA  ASP A   8      20.045  32.105  13.626  0.00  0.00    +0.160 C 
BRANCH  55  56
ATOM     56  C   ASP A   8      18.810  31.590  12.891  0.00  0.00    +0.241 C 
ATOM     57  O   ASP A   8      18.090  30.720  13.389  0.00  0.00    -0.273 OA
ATOM     58  N   THR A   9      18.573  32.141  11.705  0.00  0.00    -0.295 N 
ATOM     59  H   THR A   9      19.200  32.900  11.371  0.00  0.00    +0.150 HD
BRANCH  58  60
ATOM     60  CA  THR A   9      17.466  31.720  10.856  0.00  0.00    +0.176 C 
BRANCH  60  61
ATOM     61  C   THR A   9      18.000  30.783   9.778  0.00  0.00    +0.243 C 
ATOM     62  N   VAL A  10      17.377  29.614   9.642  0.00  0.00    -0.297 N 
ATOM     63  H   VAL A  10      16.607  29.371  10.298  0.00  0.00    +0.150 HD
ATOM     64  O   THR A   9      18.973  31.108   9.101  0.00  0.00    -0.273 OA
BRANCH  62  65
ATOM     65  CA  VAL A  10      17.748  28.661   8.593  0.00  0.00    +0.149 C 
BRANCH  65  66
ATOM     66  C   VAL A  10      16.539  28.261   7.742  0.00  0.00    +0.241 C 
ATOM     67  O   VAL A  10      15.473  27.897   8.261  0.00  0.00    -0.273 OA
ATOM     68  N   ILE A  11      16.727  28.350   6.429  0.00  0.00    -0.298 N 
ATOM     69  H   ILE A  11      17.657  28.658   6.080  0.00  0.00    +0.150 HD
BRANCH  68  70
ATOM     70  CA  ILE A  11      15.690  28.036   5.458  0.00  0.00    +0.137 C 
BRANCH  70  71
ATOM     71  CB  ILE A  11      15.338  29.287   4.597  0.00  0.00    +0.026 C 
ATOM     72  CG2 ILE A  11      14.227  28.984   3.589  0.00  0.00    +0.002 C 
BRANCH  71  73
ATOM     73  CG1 ILE A  11      14.982  30.497   5.484  0.00  0.00    +0.002 C 
ATOM     74  CD1 ILE A  11      13.743  30.314   6.384  0.00  0.00    +0.000 C 
ENDBRANCH  71  73
ENDBRANCH  70  71
BRANCH  70  75
ATOM     75  C   ILE A  11      16.158  26.886   4.563  0.00  0.00    +0.227 C 
ATOM     76  O   ILE A  11      17.343  26.790   4.228  0.00  0.00    -0.286 OA
ENDBRANCH  70  75
ENDBRANCH  68  70
ENDBRANCH  65  66
BRANCH  65  77
ATOM     77  CB  VAL A  10      18.552  27.420   9.141  0.00  0.00    +0.027 C 
ATOM     78  CG2 VAL A  10      17.699  26.544  10.017  0.00  0.00    +0.002 C 
ATOM     79  CG1 VAL A  10      19.155  26.598   8.002  0.00  0.00    +0.002 C 
ENDBRANCH  65  77
ENDBRANCH  62  65
ENDBRANCH  60  61
BRANCH  60  80
ATOM     80  CB  THR A   9      16.767  32.955  10.247  0.00  0.00    +0.137 C 
ATOM     81  CG2 THR A   9      15.669  32.567   9.250  0.00  0.00    +0.034 C 
BRANCH  80  82
ATOM     82  OG1 THR A   9      16.191  33.724  11.308  0.00  0.00    -0.382 OA
ATOM     83  HG1 THR A   9      16.905  34.013  11.930  0.00  0.00    +0.210 HD
ENDBRANCH  80  82
ENDBRANCH  60  80
ENDBRANCH  58  60
ENDBRANCH  55  56
BRANCH  55  84
ATOM     84  CB  ASP A   8      21.309  31.704  12.857  0.00  0.00    +0.143 C 
BRANCH  84  85
ATOM     85  CG  ASP A   8      22.590  32.120  13.567  0.00  0.00    +0.367 C 
ATOM     86  OD2 ASP A   8      22.671  33.273  14.049  0.00  0.00    -0.246 OA
ATOM     87  OD1 ASP A   8      23.525  31.292  13.634  0.00  0.00    -0.246 OA
ENDBRANCH  84  85
ENDBRANCH  55  84
ENDBRANCH  53  55
ENDBRANCH  50  51
BRANCH  50  88
ATOM     88  CB  ASP A   7      21.924  31.384  17.490  0.00  0.00    +0.143 C 
BRANCH  88  89
ATOM     89  CG  ASP A   7      22.355  30.878  18.846  0.00  0.00    +0.367 C 
ATOM     90  OD2 ASP A   7      21.535  30.820  19.783  0.00  0.00    -0.246 OA
ATOM     91  OD1 ASP A   7      23.548  30.536  18.973  0.00  0.00    -0.246 OA
ENDBRANCH  88  89
ENDBRANCH  50  88
ENDBRANCH   3  50
TORSDOF 39
REMARK  Name = ../refined-set-2016/3kdc/3kdc_pocket.pdb
REMARK  240 active torsions:
REMARK  status: ('A' for Active; 'I' for Inactive)
REMARK    1  A    between atoms: _1  and  _3
REMARK    2  A    between atoms: _3  and  _4
REMARK    3  A    between atoms: _3  and  _6
REMARK    4  A    between atoms: _6  and  _7
REMARK    5  A    between atoms: _7  and  _8
REMARK    6  A    between atoms: _8  and  _9
REMARK    7  A    between atoms: _18  and  _20
REMARK    8  A    between atoms: _20  and  _21
REMARK    9  A    between atoms: _20  and  _23
REMARK   10  A    between atoms: _23  and  _24
REMARK   11  A    between atoms: _27  and  _29
REMARK   12  A    between atoms: _29  and  _30
REMARK   13  A    between atoms: _29  and  _32
REMARK   14  A    between atoms: _32  and  _33
REMARK   15  A    between atoms: _36  and  _38
REMARK   16  A    between atoms: _38  and  _39
REMARK   17  A    between atoms: _38  and  _41
REMARK   18  A    between atoms: _41  and  _42
REMARK   19  A    between atoms: _45  and  _47
REMARK   20  A    between atoms: _47  and  _48
REMARK   21  A    between atoms: _47  and  _50
REMARK   22  A    between atoms: _50  and  _51
REMARK   23  A    between atoms: _54  and  _56
REMARK   24  A    between atoms: _56  and  _57
REMARK   25  A    between atoms: _59  and  _61
REMARK   26  A    between atoms: _61  and  _62
REMARK   27  A    between atoms: _65  and  _67
REMARK   28  A    between atoms: _67  and  _68
REMARK   29  A    between atoms: _67  and  _70
REMARK   30  A    between atoms: _70  and  _71
REMARK   31  A    between atoms: _74  and  _76
REMARK   32  A    between atoms: _76  and  _77
REMARK   33  A    between atoms: _76  and  _79
REMARK   34  A    between atoms: _79  and  _80
REMARK   35  A    between atoms: _83  and  _85
REMARK   36  A    between atoms: _85  and  _86
REMARK   37  A    between atoms: _85  and  _88
REMARK   38  A    between atoms: _88  and  _89
REMARK   39  A    between atoms: _92  and  _94
REMARK   40  A    between atoms: _94  and  _95
REMARK   41  A    between atoms: _94  and  _97
REMARK   42  A    between atoms: _100  and  _102
REMARK   43  A    between atoms: _102  and  _103
REMARK   44  A    between atoms: _102  and  _105
REMARK   45  A    between atoms: _105  and  _106
REMARK   46  A    between atoms: _109  and  _111
REMARK   47  A    between atoms: _111  and  _112
REMARK   48  A    between atoms: _111  and  _114
REMARK   49  A    between atoms: _114  and  _115
REMARK   50  A    between atoms: _115  and  _116
REMARK   51  A    between atoms: _116  and  _117
REMARK   52  A    between atoms: _117  and  _118
REMARK   53  A    between atoms: _122  and  _124
REMARK   54  A    between atoms: _124  and  _125
REMARK   55  A    between atoms: _124  and  _127
REMARK   56  A    between atoms: _127  and  _128
REMARK   57  A    between atoms: _128  and  _129
REMARK   58  A    between atoms: _131  and  _133
REMARK   59  A    between atoms: _133  and  _134
REMARK   60  A    between atoms: _133  and  _136
REMARK   61  A    between atoms: _136  and  _137
REMARK   62  A    between atoms: _140  and  _142
REMARK   63  A    between atoms: _142  and  _143
REMARK   64  A    between atoms: _145  and  _147
REMARK   65  A    between atoms: _147  and  _148
REMARK   66  A    between atoms: _150  and  _152
REMARK   67  A    between atoms: _152  and  _153
REMARK   68  A    between atoms: _152  and  _155
REMARK   69  A    between atoms: _155  and  _156
REMARK   70  A    between atoms: _159  and  _161
REMARK   71  A    between atoms: _161  and  _162
REMARK   72  A    between atoms: _164  and  _166
REMARK   73  A    between atoms: _166  and  _167
REMARK   74  A    between atoms: _169  and  _171
REMARK   75  A    between atoms: _171  and  _172
REMARK   76  A    between atoms: _171  and  _174
REMARK   77  A    between atoms: _174  and  _175
REMARK   78  A    between atoms: _181  and  _183
REMARK   79  A    between atoms: _183  and  _184
REMARK   80  A    between atoms: _183  and  _186
REMARK   81  A    between atoms: _186  and  _187
REMARK   82  A    between atoms: _190  and  _192
REMARK   83  A    between atoms: _192  and  _193
REMARK   84  A    between atoms: _192  and  _195
REMARK   85  A    between atoms: _198  and  _200
REMARK   86  A    between atoms: _200  and  _201
REMARK   87  A    between atoms: _200  and  _203
REMARK   88  A    between atoms: _203  and  _204
REMARK   89  A    between atoms: _207  and  _209
REMARK   90  A    between atoms: _209  and  _210
REMARK   91  A    between atoms: _209  and  _212
REMARK   92  A    between atoms: _212  and  _213
REMARK   93  A    between atoms: _217  and  _218
REMARK   94  A    between atoms: _223  and  _225
REMARK   95  A    between atoms: _225  and  _226
REMARK   96  A    between atoms: _225  and  _228
REMARK   97  A    between atoms: _231  and  _233
REMARK   98  A    between atoms: _233  and  _234
REMARK   99  A    between atoms: _233  and  _236
REMARK  100  A    between atoms: _236  and  _237
REMARK  101  A    between atoms: _242  and  _244
REMARK  102  A    between atoms: _244  and  _245
REMARK  103  A    between atoms: _244  and  _247
REMARK  104  A    between atoms: _247  and  _248
REMARK  105  A    between atoms: _251  and  _253
REMARK  106  A    between atoms: _253  and  _254
REMARK  107  A    between atoms: _253  and  _256
REMARK  108  A    between atoms: _256  and  _257
REMARK  109  A    between atoms: _260  and  _262
REMARK  110  A    between atoms: _262  and  _263
REMARK  111  A    between atoms: _265  and  _267
REMARK  112  A    between atoms: _267  and  _268
REMARK  113  A    between atoms: _267  and  _270
REMARK  114  A    between atoms: _270  and  _271
REMARK  115  A    between atoms: _271  and  _272
REMARK  116  A    between atoms: _272  and  _273
REMARK  117  A    between atoms: _282  and  _284
REMARK  118  A    between atoms: _284  and  _285
REMARK  119  A    between atoms: _284  and  _287
REMARK  120  A    between atoms: _287  and  _288
REMARK  121  A    between atoms: _293  and  _295
REMARK  122  A    between atoms: _295  and  _296
REMARK  123  A    between atoms: _295  and  _298
REMARK  124  A    between atoms: _298  and  _299
REMARK  125  A    between atoms: _299  and  _300
REMARK  126  A    between atoms: _300  and  _301
REMARK  127  A    between atoms: _310  and  _312
REMARK  128  A    between atoms: _312  and  _313
REMARK  129  A    between atoms: _312  and  _315
REMARK  130  A    between atoms: _315  and  _316
REMARK  131  A    between atoms: _319  and  _321
REMARK  132  A    between atoms: _321  and  _322
REMARK  133  A    between atoms: _321  and  _324
REMARK  134  A    between atoms: _324  and  _325
REMARK  135  A    between atoms: _328  and  _330
REMARK  136  A    between atoms: _330  and  _331
REMARK  137  A    between atoms: _330  and  _333
REMARK  138  A    between atoms: _333  and  _334
REMARK  139  A    between atoms: _337  and  _339
REMARK  140  A    between atoms: _339  and  _340
REMARK  141  A    between atoms: _339  and  _342
REMARK  142  A    between atoms: _342  and  _343
REMARK  143  A    between atoms: _346  and  _348
REMARK  144  A    between atoms: _348  and  _349
REMARK  145  A    between atoms: _348  and  _351
REMARK  146  A    between atoms: _351  and  _352
REMARK  147  A    between atoms: _355  and  _357
REMARK  148  A    between atoms: _357  and  _358
REMARK  149  A    between atoms: _360  and  _362
REMARK  150  A    between atoms: _362  and  _363
REMARK  151  A    between atoms: _366  and  _368
REMARK  152  A    between atoms: _368  and  _369
REMARK  153  A    between atoms: _368  and  _371
REMARK  154  A    between atoms: _371  and  _372
REMARK  155  A    between atoms: _375  and  _377
REMARK  156  A    between atoms: _377  and  _378
REMARK  157  A    between atoms: _377  and  _380
REMARK  158  A    between atoms: _380  and  _381
REMARK  159  A    between atoms: _384  and  _386
REMARK  160  A    between atoms: _386  and  _387
REMARK  161  A    between atoms: _386  and  _389
REMARK  162  A    between atoms: _389  and  _390
REMARK  163  A    between atoms: _393  and  _395
REMARK  164  A    between atoms: _395  and  _396
REMARK  165  A    between atoms: _395  and  _398
REMARK  166  A    between atoms: _401  and  _403
REMARK  167  A    between atoms: _403  and  _404
REMARK  168  A    between atoms: _403  and  _406
REMARK  169  A    between atoms: _406  and  _407
REMARK  170  A    between atoms: _407  and  _408
REMARK  171  A    between atoms: _408  and  _409
REMARK  172  A    between atoms: _409  and  _410
REMARK  173  A    between atoms: _414  and  _416
REMARK  174  A    between atoms: _416  and  _417
REMARK  175  A    between atoms: _416  and  _419
REMARK  176  A    between atoms: _419  and  _420
REMARK  177  A    between atoms: _420  and  _421
REMARK  178  A    between atoms: _423  and  _425
REMARK  179  A    between atoms: _425  and  _426
REMARK  180  A    between atoms: _425  and  _428
REMARK  181  A    between atoms: _428  and  _429
REMARK  182  A    between atoms: _432  and  _434
REMARK  183  A    between atoms: _434  and  _435
REMARK  184  A    between atoms: _437  and  _439
REMARK  185  A    between atoms: _439  and  _440
REMARK  186  A    between atoms: _442  and  _444
REMARK  187  A    between atoms: _444  and  _445
REMARK  188  A    between atoms: _444  and  _447
REMARK  189  A    between atoms: _447  and  _448
REMARK  190  A    between atoms: _451  and  _453
REMARK  191  A    between atoms: _453  and  _454
REMARK  192  A    between atoms: _456  and  _458
REMARK  193  A    between atoms: _458  and  _459
REMARK  194  A    between atoms: _461  and  _463
REMARK  195  A    between atoms: _463  and  _464
REMARK  196  A    between atoms: _463  and  _466
REMARK  197  A    between atoms: _466  and  _467
REMARK  198  A    between atoms: _473  and  _475
REMARK  199  A    between atoms: _475  and  _476
REMARK  200  A    between atoms: _475  and  _478
REMARK  201  A    between atoms: _478  and  _479
REMARK  202  A    between atoms: _482  and  _484
REMARK  203  A    between atoms: _484  and  _485
REMARK  204  A    between atoms: _484  and  _487
REMARK  205  A    between atoms: _490  and  _492
REMARK  206  A    between atoms: _492  and  _493
REMARK  207  A    between atoms: _492  and  _495
REMARK  208  A    between atoms: _495  and  _496
REMARK  209  A    between atoms: _499  and  _501
REMARK  210  A    between atoms: _501  and  _502
REMARK  211  A    between atoms: _501  and  _504
REMARK  212  A    between atoms: _504  and  _505
REMARK  213  A    between atoms: _509  and  _510
REMARK  214  A    between atoms: _515  and  _517
REMARK  215  A    between atoms: _517  and  _518
REMARK  216  A    between atoms: _517  and  _520
REMARK  217  A    between atoms: _523  and  _525
REMARK  218  A    between atoms: _525  and  _526
REMARK  219  A    between atoms: _525  and  _528
REMARK  220  A    between atoms: _528  and  _529
REMARK  221  A    between atoms: _534  and  _536
REMARK  222  A    between atoms: _536  and  _537
REMARK  223  A    between atoms: _536  and  _539
REMARK  224  A    between atoms: _539  and  _540
REMARK  225  A    between atoms: _543  and  _545
REMARK  226  A    between atoms: _545  and  _546
REMARK  227  A    between atoms: _545  and  _548
REMARK  228  A    between atoms: _548  and  _549
REMARK  229  A    between atoms: _552  and  _554
REMARK  230  A    between atoms: _554  and  _555
REMARK  231  A    between atoms: _557  and  _559
REMARK  232  A    between atoms: _559  and  _560
REMARK  233  A    between atoms: _559  and  _562
REMARK  234  A    between atoms: _562  and  _563
REMARK  235  A    between atoms: _563  and  _564
REMARK  236  A    between atoms: _564  and  _565
REMARK  237  A    between atoms: _574  and  _576
REMARK  238  A    between atoms: _576  and  _577
REMARK  239  A    between atoms: _576  and  _579
REMARK  240  A    between atoms: _579  and  _580
REMARK                            x       y       z     vdW  Elec       q    Type
REMARK                         _______ _______ _______ _____ _____    ______ ____
ROOT
ATOM      1  C   GLY A   5      21.545  19.697  17.790  0.00  0.00    +0.243 C 
ATOM      2  N   ILE A   6      20.310  19.258  18.017  0.00  0.00    -0.297 N 
ATOM      3  H   ILE A   6      19.517  19.928  17.963  0.00  0.00    +0.150 HD
ATOM      4  O   GLY A   5      22.558  19.009  17.949  0.00  0.00    -0.273 OA
ENDROOT
BRANCH   2   5
ATOM      5  CA  ILE A   6      20.039  17.865  18.339  0.00  0.00    +0.149 C 
BRANCH   5   6
ATOM      6  C   ILE A   6      20.289  17.024  17.092  0.00  0.00    +0.241 C 
ATOM      7  N   GLY A   7      21.026  15.937  17.265  0.00  0.00    -0.295 N 
ATOM      8  H   GLY A   7      21.331  15.671  18.223  0.00  0.00    +0.150 HD
ATOM      9  O   ILE A   6      19.856  17.369  15.993  0.00  0.00    -0.273 OA
BRANCH   7  10
ATOM     10  CA  GLY A   7      21.413  15.113  16.136  0.00  0.00    +0.176 C 
BRANCH  10  11
ATOM     11  C   GLY A   7      22.781  15.470  15.591  0.00  0.00    +0.243 C 
ATOM     12  N   GLY A   8      23.232  16.703  15.827  0.00  0.00    -0.295 N 
ATOM     13  H   GLY A   8      22.639  17.384  16.343  0.00  0.00    +0.150 HD
ATOM     14  O   GLY A   7      23.425  14.636  14.957  0.00  0.00    -0.273 OA
BRANCH  12  15
ATOM     15  CA  GLY A   8      24.565  17.098  15.359  0.00  0.00    +0.176 C 
BRANCH  15  16
ATOM     16  C   GLY A   8      24.556  18.332  14.476  0.00  0.00    +0.243 C 
ATOM     17  O   GLY A   8      23.715  19.216  14.646  0.00  0.00    -0.273 OA
ATOM     18  N   PHE A   9      25.482  18.378  13.520  0.00  0.00    -0.297 N 
ATOM     19  H   PHE A   9      26.061  17.532  13.345  0.00  0.00    +0.150 HD
BRANCH  18  20
ATOM     20  CA  PHE A   9      25.718  19.577  12.703  0.00  0.00    +0.153 C 
BRANCH  20  21
ATOM     21  C   PHE A   9      25.327  19.413  11.230  0.00  0.00    +0.241 C 
ATOM     22  O   PHE A   9      25.440  18.325  10.664  0.00  0.00    -0.273 OA
ATOM     23  N   ILE A  10      24.875  20.503  10.616  0.00  0.00    -0.298 N 
ATOM     24  H   ILE A  10      24.637  21.339  11.187  0.00  0.00    +0.150 HD
BRANCH  23  25
ATOM     25  CA  ILE A  10      24.701  20.565   9.157  0.00  0.00    +0.137 C 
BRANCH  25  26
ATOM     26  C   ILE A  10      25.462  21.741   8.555  0.00  0.00    +0.227 C 
ATOM     27  O   ILE A  10      25.730  22.734   9.229  0.00  0.00    -0.286 OA
ENDBRANCH  25  26
BRANCH  25  28
ATOM     28  CB  ILE A  10      23.206  20.624   8.706  0.00  0.00    +0.026 C 
ATOM     29  CG2 ILE A  10      22.473  19.328   9.073  0.00  0.00    +0.002 C 
BRANCH  28  30
ATOM     30  CG1 ILE A  10      22.503  21.875   9.252  0.00  0.00    +0.002 C 
ATOM     31  CD1 ILE A  10      21.306  22.340   8.405  0.00  0.00    +0.000 C 
ENDBRANCH  28  30
ENDBRANCH  25  28
ENDBRANCH  23  25
ENDBRANCH  20  21
BRANCH  20  32
ATOM     32  CB  PHE A   9      27.198  19.983  12.775  0.00  0.00    +0.055 C 
BRANCH  32  33
ATOM     33  CG  PHE A   9      27.595  20.658  14.063  0.00  0.00    -0.020 A 
ATOM     34  CD2 PHE A   9      27.804  19.917  15.225  0.00  0.00    -0.004 A 
ATOM     35  CE2 PHE A   9      28.183  20.540  16.411  0.00  0.00    -0.000 A 
ATOM     36  CZ  PHE A   9      28.367  21.924  16.441  0.00  0.00    -0.000 A 
ATOM     37  CE1 PHE A   9      28.171  22.670  15.282  0.00  0.00    -0.000 A 
ATOM     38  CD1 PHE A   9      27.801  22.036  14.103  0.00  0.00    -0.004 A 
ENDBRANCH  32  33
ENDBRANCH  20  32
ENDBRANCH  18  20
ENDBRANCH  15  16
ENDBRANCH  12  15
ENDBRANCH  10  11
ENDBRANCH   7  10
ENDBRANCH   5   6
BRANCH   5  39
ATOM     39  CB  ILE A   6      18.613  17.671  18.913  0.00  0.00    +0.027 C 
ATOM     40  CG2 ILE A   6      18.123  16.236  18.697  0.00  0.00    +0.002 C 
BRANCH  39  41
ATOM     41  CG1 ILE A   6      18.610  18.015  20.409  0.00  0.00    +0.002 C 
ATOM     42  CD1 ILE A   6      17.239  18.196  21.019  0.00  0.00    +0.000 C 
ENDBRANCH  39  41
ENDBRANCH   5  39
ENDBRANCH   2   5
BRANCH   1  43
ATOM     43  CA  GLY A   5      21.665  21.123  17.322  0.00  0.00    +0.176 C 
BRANCH  43  46
ATOM     44  C   GLY A   4      23.447  22.437  16.317  0.00  0.00    +0.243 C 
ATOM     45  O   GLY A   4      23.050  23.486  16.826  0.00  0.00    -0.273 OA
ATOM     46  N   GLY A   5      22.849  21.268  16.494  0.00  0.00    -0.295 N 
ATOM     47  H   GLY A   5      23.240  20.427  16.024  0.00  0.00    +0.150 HD
BRANCH  44  48
ATOM     48  CA  GLY A   4      24.679  22.400  15.445  0.00  0.00    +0.176 C 
BRANCH  48  50
ATOM     49  C   ILE A   3      24.886  23.582  13.332  0.00  0.00    +0.241 C 
ATOM     50  N   GLY A   4      24.883  23.605  14.661  0.00  0.00    -0.295 N 
ATOM     51  H   GLY A   4      25.031  24.510  15.152  0.00  0.00    +0.150 HD
ATOM     52  O   ILE A   3      24.617  22.577  12.670  0.00  0.00    -0.273 OA
BRANCH  49  53
ATOM     53  CA  ILE A   3      25.256  24.890  12.647  0.00  0.00    +0.149 C 
BRANCH  53  56
ATOM     54  C   MET A   2      27.360  25.207  11.465  0.00  0.00    +0.241 C 
ATOM     55  O   MET A   2      27.760  26.008  12.311  0.00  0.00    -0.273 OA
ATOM     56  N   ILE A   3      26.148  24.660  11.509  0.00  0.00    -0.297 N 
ATOM     57  H   ILE A   3      25.829  24.059  10.722  0.00  0.00    +0.150 HD
BRANCH  54  58
ATOM     58  CA  MET A   2      28.255  24.799  10.298  0.00  0.00    +0.149 C 
BRANCH  58  60
ATOM     59  C   LYS A   1      28.421  26.363   8.415  0.00  0.00    +0.238 C 
ATOM     60  N   MET A   2      28.796  25.984   9.636  0.00  0.00    -0.297 N 
ATOM     61  H   MET A   2      29.504  26.556  10.139  0.00  0.00    +0.150 HD
ATOM     62  O   LYS A   1      27.716  25.676   7.675  0.00  0.00    -0.274 OA
BRANCH  59  63
ATOM     63  CA  LYS A   1      28.917  27.730   7.952  0.00  0.00    +0.145 C 
BRANCH  63  64
ATOM     64  N   LYS A   1      29.054  27.749   6.504  0.00  0.00    -0.238 NA
ATOM     65  H   LYS A   1      28.427  27.145   5.934  0.00  0.00    +0.142 HD
ENDBRANCH  63  64
BRANCH  63  66
ATOM     66  CB  LYS A   1      27.933  28.813   8.399  0.00  0.00    +0.026 C 
BRANCH  66  67
ATOM     67  CG  LYS A   1      28.016  29.164   9.870  0.00  0.00    -0.000 C 
BRANCH  67  68
ATOM     68  CD  LYS A   1      26.873  30.055  10.287  0.00  0.00    -0.024 C 
BRANCH  68  69
ATOM     69  CE  LYS A   1      27.045  30.493  11.739  0.00  0.00    -0.086 C 
BRANCH  69  70
ATOM     70  NZ  LYS A   1      25.797  31.111  12.230  0.00  0.00    +0.380 N 
ATOM     71  HZ1 LYS A   1      25.924  31.406  13.219  0.00  0.00    -0.089 HD
ATOM     72  HZ2 LYS A   1      25.022  30.420  12.169  0.00  0.00    -0.089 HD
ATOM     73  HZ3 LYS A   1      25.569  31.941  11.646  0.00  0.00    -0.089 HD
ENDBRANCH  69  70
ENDBRANCH  68  69
ENDBRANCH  67  68
ENDBRANCH  66  67
ENDBRANCH  63  66
ENDBRANCH  59  63
ENDBRANCH  58  60
BRANCH  58  74
ATOM     74  CB  MET A   2      29.388  23.906  10.813  0.00  0.00    +0.041 C 
BRANCH  74  75
ATOM     75  CG  MET A   2      30.188  23.227   9.723  0.00  0.00    +0.060 C 
BRANCH  75  76
ATOM     76  SD  MET A   2      29.305  21.842   8.999  0.00  0.00    -0.139 S 
ATOM     77  CE  MET A   2      29.835  20.517  10.095  0.00  0.00    +0.069 C 
ENDBRANCH  75  76
ENDBRANCH  74  75
ENDBRANCH  58  74
ENDBRANCH  54  58
ENDBRANCH  53  56
BRANCH  53  78
ATOM     78  CB  ILE A   3      23.987  25.719  12.275  0.00  0.00    +0.027 C 
ATOM     79  CG2 ILE A   3      24.383  27.159  11.937  0.00  0.00    +0.002 C 
BRANCH  78  80
ATOM     80  CG1 ILE A   3      23.207  25.070  11.120  0.00  0.00    +0.002 C 
ATOM     81  CD1 ILE A   3      21.778  25.593  10.938  0.00  0.00    +0.000 C 
ENDBRANCH  78  80
ENDBRANCH  53  78
ENDBRANCH  49  53
ENDBRANCH  48  50
ENDBRANCH  44  48
ENDBRANCH  43  46
ENDBRANCH   1  43
TORSDOF 36
REMARK  Name = ../refined-set-2016/3kdc/3kdc_pocket.pdb
REMARK  240 active torsions:
REMARK  status: ('A' for Active; 'I' for Inactive)
REMARK    1  A    between atoms: _1  and  _3
REMARK    2  A    between atoms: _3  and  _4
REMARK    3  A    between atoms: _3  and  _6
REMARK    4  A    between atoms: _6  and  _7
REMARK    5  A    between atoms: _7  and  _8
REMARK    6  A    between atoms: _8  and  _9
REMARK    7  A    between atoms: _18  and  _20
REMARK    8  A    between atoms: _20  and  _21
REMARK    9  A    between atoms: _20  and  _23
REMARK   10  A    between atoms: _23  and  _24
REMARK   11  A    between atoms: _27  and  _29
REMARK   12  A    between atoms: _29  and  _30
REMARK   13  A    between atoms: _29  and  _32
REMARK   14  A    between atoms: _32  and  _33
REMARK   15  A    between atoms: _36  and  _38
REMARK   16  A    between atoms: _38  and  _39
REMARK   17  A    between atoms: _38  and  _41
REMARK   18  A    between atoms: _41  and  _42
REMARK   19  A    between atoms: _45  and  _47
REMARK   20  A    between atoms: _47  and  _48
REMARK   21  A    between atoms: _47  and  _50
REMARK   22  A    between atoms: _50  and  _51
REMARK   23  A    between atoms: _54  and  _56
REMARK   24  A    between atoms: _56  and  _57
REMARK   25  A    between atoms: _59  and  _61
REMARK   26  A    between atoms: _61  and  _62
REMARK   27  A    between atoms: _65  and  _67
REMARK   28  A    between atoms: _67  and  _68
REMARK   29  A    between atoms: _67  and  _70
REMARK   30  A    between atoms: _70  and  _71
REMARK   31  A    between atoms: _74  and  _76
REMARK   32  A    between atoms: _76  and  _77
REMARK   33  A    between atoms: _76  and  _79
REMARK   34  A    between atoms: _79  and  _80
REMARK   35  A    between atoms: _83  and  _85
REMARK   36  A    between atoms: _85  and  _86
REMARK   37  A    between atoms: _85  and  _88
REMARK   38  A    between atoms: _88  and  _89
REMARK   39  A    between atoms: _92  and  _94
REMARK   40  A    between atoms: _94  and  _95
REMARK   41  A    between atoms: _94  and  _97
REMARK   42  A    between atoms: _100  and  _102
REMARK   43  A    between atoms: _102  and  _103
REMARK   44  A    between atoms: _102  and  _105
REMARK   45  A    between atoms: _105  and  _106
REMARK   46  A    between atoms: _109  and  _111
REMARK   47  A    between atoms: _111  and  _112
REMARK   48  A    between atoms: _111  and  _114
REMARK   49  A    between atoms: _114  and  _115
REMARK   50  A    between atoms: _115  and  _116
REMARK   51  A    between atoms: _116  and  _117
REMARK   52  A    between atoms: _117  and  _118
REMARK   53  A    between atoms: _122  and  _124
REMARK   54  A    between atoms: _124  and  _125
REMARK   55  A    between atoms: _124  and  _127
REMARK   56  A    between atoms: _127  and  _128
REMARK   57  A    between atoms: _128  and  _129
REMARK   58  A    between atoms: _131  and  _133
REMARK   59  A    between atoms: _133  and  _134
REMARK   60  A    between atoms: _133  and  _136
REMARK   61  A    between atoms: _136  and  _137
REMARK   62  A    between atoms: _140  and  _142
REMARK   63  A    between atoms: _142  and  _143
REMARK   64  A    between atoms: _145  and  _147
REMARK   65  A    between atoms: _147  and  _148
REMARK   66  A    between atoms: _150  and  _152
REMARK   67  A    between atoms: _152  and  _153
REMARK   68  A    between atoms: _152  and  _155
REMARK   69  A    between atoms: _155  and  _156
REMARK   70  A    between atoms: _159  and  _161
REMARK   71  A    between atoms: _161  and  _162
REMARK   72  A    between atoms: _164  and  _166
REMARK   73  A    between atoms: _166  and  _167
REMARK   74  A    between atoms: _169  and  _171
REMARK   75  A    between atoms: _171  and  _172
REMARK   76  A    between atoms: _171  and  _174
REMARK   77  A    between atoms: _174  and  _175
REMARK   78  A    between atoms: _181  and  _183
REMARK   79  A    between atoms: _183  and  _184
REMARK   80  A    between atoms: _183  and  _186
REMARK   81  A    between atoms: _186  and  _187
REMARK   82  A    between atoms: _190  and  _192
REMARK   83  A    between atoms: _192  and  _193
REMARK   84  A    between atoms: _192  and  _195
REMARK   85  A    between atoms: _198  and  _200
REMARK   86  A    between atoms: _200  and  _201
REMARK   87  A    between atoms: _200  and  _203
REMARK   88  A    between atoms: _203  and  _204
REMARK   89  A    between atoms: _207  and  _209
REMARK   90  A    between atoms: _209  and  _210
REMARK   91  A    between atoms: _209  and  _212
REMARK   92  A    between atoms: _212  and  _213
REMARK   93  A    between atoms: _217  and  _218
REMARK   94  A    between atoms: _223  and  _225
REMARK   95  A    between atoms: _225  and  _226
REMARK   96  A    between atoms: _225  and  _228
REMARK   97  A    between atoms: _231  and  _233
REMARK   98  A    between atoms: _233  and  _234
REMARK   99  A    between atoms: _233  and  _236
REMARK  100  A    between atoms: _236  and  _237
REMARK  101  A    between atoms: _242  and  _244
REMARK  102  A    between atoms: _244  and  _245
REMARK  103  A    between atoms: _244  and  _247
REMARK  104  A    between atoms: _247  and  _248
REMARK  105  A    between atoms: _251  and  _253
REMARK  106  A    between atoms: _253  and  _254
REMARK  107  A    between atoms: _253  and  _256
REMARK  108  A    between atoms: _256  and  _257
REMARK  109  A    between atoms: _260  and  _262
REMARK  110  A    between atoms: _262  and  _263
REMARK  111  A    between atoms: _265  and  _267
REMARK  112  A    between atoms: _267  and  _268
REMARK  113  A    between atoms: _267  and  _270
REMARK  114  A    between atoms: _270  and  _271
REMARK  115  A    between atoms: _271  and  _272
REMARK  116  A    between atoms: _272  and  _273
REMARK  117  A    between atoms: _282  and  _284
REMARK  118  A    between atoms: _284  and  _285
REMARK  119  A    between atoms: _284  and  _287
REMARK  120  A    between atoms: _287  and  _288
REMARK  121  A    between atoms: _293  and  _295
REMARK  122  A    between atoms: _295  and  _296
REMARK  123  A    between atoms: _295  and  _298
REMARK  124  A    between atoms: _298  and  _299
REMARK  125  A    between atoms: _299  and  _300
REMARK  126  A    between atoms: _300  and  _301
REMARK  127  A    between atoms: _310  and  _312
REMARK  128  A    between atoms: _312  and  _313
REMARK  129  A    between atoms: _312  and  _315
REMARK  130  A    between atoms: _315  and  _316
REMARK  131  A    between atoms: _319  and  _321
REMARK  132  A    between atoms: _321  and  _322
REMARK  133  A    between atoms: _321  and  _324
REMARK  134  A    between atoms: _324  and  _325
REMARK  135  A    between atoms: _328  and  _330
REMARK  136  A    between atoms: _330  and  _331
REMARK  137  A    between atoms: _330  and  _333
REMARK  138  A    between atoms: _333  and  _334
REMARK  139  A    between atoms: _337  and  _339
REMARK  140  A    between atoms: _339  and  _340
REMARK  141  A    between atoms: _339  and  _342
REMARK  142  A    between atoms: _342  and  _343
REMARK  143  A    between atoms: _346  and  _348
REMARK  144  A    between atoms: _348  and  _349
REMARK  145  A    between atoms: _348  and  _351
REMARK  146  A    between atoms: _351  and  _352
REMARK  147  A    between atoms: _355  and  _357
REMARK  148  A    between atoms: _357  and  _358
REMARK  149  A    between atoms: _360  and  _362
REMARK  150  A    between atoms: _362  and  _363
REMARK  151  A    between atoms: _366  and  _368
REMARK  152  A    between atoms: _368  and  _369
REMARK  153  A    between atoms: _368  and  _371
REMARK  154  A    between atoms: _371  and  _372
REMARK  155  A    between atoms: _375  and  _377
REMARK  156  A    between atoms: _377  and  _378
REMARK  157  A    between atoms: _377  and  _380
REMARK  158  A    between atoms: _380  and  _381
REMARK  159  A    between atoms: _384  and  _386
REMARK  160  A    between atoms: _386  and  _387
REMARK  161  A    between atoms: _386  and  _389
REMARK  162  A    between atoms: _389  and  _390
REMARK  163  A    between atoms: _393  and  _395
REMARK  164  A    between atoms: _395  and  _396
REMARK  165  A    between atoms: _395  and  _398
REMARK  166  A    between atoms: _401  and  _403
REMARK  167  A    between atoms: _403  and  _404
REMARK  168  A    between atoms: _403  and  _406
REMARK  169  A    between atoms: _406  and  _407
REMARK  170  A    between atoms: _407  and  _408
REMARK  171  A    between atoms: _408  and  _409
REMARK  172  A    between atoms: _409  and  _410
REMARK  173  A    between atoms: _414  and  _416
REMARK  174  A    between atoms: _416  and  _417
REMARK  175  A    between atoms: _416  and  _419
REMARK  176  A    between atoms: _419  and  _420
REMARK  177  A    between atoms: _420  and  _421
REMARK  178  A    between atoms: _423  and  _425
REMARK  179  A    between atoms: _425  and  _426
REMARK  180  A    between atoms: _425  and  _428
REMARK  181  A    between atoms: _428  and  _429
REMARK  182  A    between atoms: _432  and  _434
REMARK  183  A    between atoms: _434  and  _435
REMARK  184  A    between atoms: _437  and  _439
REMARK  185  A    between atoms: _439  and  _440
REMARK  186  A    between atoms: _442  and  _444
REMARK  187  A    between atoms: _444  and  _445
REMARK  188  A    between atoms: _444  and  _447
REMARK  189  A    between atoms: _447  and  _448
REMARK  190  A    between atoms: _451  and  _453
REMARK  191  A    between atoms: _453  and  _454
REMARK  192  A    between atoms: _456  and  _458
REMARK  193  A    between atoms: _458  and  _459
REMARK  194  A    between atoms: _461  and  _463
REMARK  195  A    between atoms: _463  and  _464
REMARK  196  A    between atoms: _463  and  _466
REMARK  197  A    between atoms: _466  and  _467
REMARK  198  A    between atoms: _473  and  _475
REMARK  199  A    between atoms: _475  and  _476
REMARK  200  A    between atoms: _475  and  _478
REMARK  201  A    between atoms: _478  and  _479
REMARK  202  A    between atoms: _482  and  _484
REMARK  203  A    between atoms: _484  and  _485
REMARK  204  A    between atoms: _484  and  _487
REMARK  205  A    between atoms: _490  and  _492
REMARK  206  A    between atoms: _492  and  _493
REMARK  207  A    between atoms: _492  and  _495
REMARK  208  A    between atoms: _495  and  _496
REMARK  209  A    between atoms: _499  and  _501
REMARK  210  A    between atoms: _501  and  _502
REMARK  211  A    between atoms: _501  and  _504
REMARK  212  A    between atoms: _504  and  _505
REMARK  213  A    between atoms: _509  and  _510
REMARK  214  A    between atoms: _515  and  _517
REMARK  215  A    between atoms: _517  and  _518
REMARK  216  A    between atoms: _517  and  _520
REMARK  217  A    between atoms: _523  and  _525
REMARK  218  A    between atoms: _525  and  _526
REMARK  219  A    between atoms: _525  and  _528
REMARK  220  A    between atoms: _528  and  _529
REMARK  221  A    between atoms: _534  and  _536
REMARK  222  A    between atoms: _536  and  _537
REMARK  223  A    between atoms: _536  and  _539
REMARK  224  A    between atoms: _539  and  _540
REMARK  225  A    between atoms: _543  and  _545
REMARK  226  A    between atoms: _545  and  _546
REMARK  227  A    between atoms: _545  and  _548
REMARK  228  A    between atoms: _548  and  _549
REMARK  229  A    between atoms: _552  and  _554
REMARK  230  A    between atoms: _554  and  _555
REMARK  231  A    between atoms: _557  and  _559
REMARK  232  A    between atoms: _559  and  _560
REMARK  233  A    between atoms: _559  and  _562
REMARK  234  A    between atoms: _562  and  _563
REMARK  235  A    between atoms: _563  and  _564
REMARK  236  A    between atoms: _564  and  _565
REMARK  237  A    between atoms: _574  and  _576
REMARK  238  A    between atoms: _576  and  _577
REMARK  239  A    between atoms: _576  and  _579
REMARK  240  A    between atoms: _579  and  _580
REMARK                            x       y       z     vdW  Elec       q    Type
REMARK                         _______ _______ _______ _____ _____    ______ ____
ROOT
ATOM      1  CA  VAL A   1      24.653  25.832   5.443  0.00  0.00    +0.133 C 
ENDROOT
BRANCH   1   2
ATOM      2  CB  VAL A   1      23.705  26.491   6.503  0.00  0.00    +0.023 C 
ATOM      3  CG2 VAL A   1      24.502  27.161   7.629  0.00  0.00    +0.002 C 
ATOM      4  CG1 VAL A   1      22.708  25.475   7.063  0.00  0.00    +0.002 C 
ENDBRANCH   1   2
BRANCH   1   5
ATOM      5  N   VAL A   1      25.572  24.864   6.045  0.00  0.00    -0.239 NA
ATOM      6  H   VAL A   1      26.353  25.216   6.635  0.00  0.00    +0.142 HD
ENDBRANCH   1   5
BRANCH   1   7
ATOM      7  C   VAL A   1      25.412  26.929   4.690  0.00  0.00    +0.224 C 
ATOM      8  O   VAL A   1      26.627  27.069   4.840  0.00  0.00    -0.287 OA
ENDBRANCH   1   7
TORSDOF 3
REMARK  Name = ../refined-set-2016/3kdc/3kdc_pocket.pdb
REMARK  240 active torsions:
REMARK  status: ('A' for Active; 'I' for Inactive)
REMARK    1  A    between atoms: _1  and  _3
REMARK    2  A    between atoms: _3  and  _4
REMARK    3  A    between atoms: _3  and  _6
REMARK    4  A    between atoms: _6  and  _7
REMARK    5  A    between atoms: _7  and  _8
REMARK    6  A    between atoms: _8  and  _9
REMARK    7  A    between atoms: _18  and  _20
REMARK    8  A    between atoms: _20  and  _21
REMARK    9  A    between atoms: _20  and  _23
REMARK   10  A    between atoms: _23  and  _24
REMARK   11  A    between atoms: _27  and  _29
REMARK   12  A    between atoms: _29  and  _30
REMARK   13  A    between atoms: _29  and  _32
REMARK   14  A    between atoms: _32  and  _33
REMARK   15  A    between atoms: _36  and  _38
REMARK   16  A    between atoms: _38  and  _39
REMARK   17  A    between atoms: _38  and  _41
REMARK   18  A    between atoms: _41  and  _42
REMARK   19  A    between atoms: _45  and  _47
REMARK   20  A    between atoms: _47  and  _48
REMARK   21  A    between atoms: _47  and  _50
REMARK   22  A    between atoms: _50  and  _51
REMARK   23  A    between atoms: _54  and  _56
REMARK   24  A    between atoms: _56  and  _57
REMARK   25  A    between atoms: _59  and  _61
REMARK   26  A    between atoms: _61  and  _62
REMARK   27  A    between atoms: _65  and  _67
REMARK   28  A    between atoms: _67  and  _68
REMARK   29  A    between atoms: _67  and  _70
REMARK   30  A    between atoms: _70  and  _71
REMARK   31  A    between atoms: _74  and  _76
REMARK   32  A    between atoms: _76  and  _77
REMARK   33  A    between atoms: _76  and  _79
REMARK   34  A    between atoms: _79  and  _80
REMARK   35  A    between atoms: _83  and  _85
REMARK   36  A    between atoms: _85  and  _86
REMARK   37  A    between atoms: _85  and  _88
REMARK   38  A    between atoms: _88  and  _89
REMARK   39  A    between atoms: _92  and  _94
REMARK   40  A    between atoms: _94  and  _95
REMARK   41  A    between atoms: _94  and  _97
REMARK   42  A    between atoms: _100  and  _102
REMARK   43  A    between atoms: _102  and  _103
REMARK   44  A    between atoms: _102  and  _105
REMARK   45  A    between atoms: _105  and  _106
REMARK   46  A    between atoms: _109  and  _111
REMARK   47  A    between atoms: _111  and  _112
REMARK   48  A    between atoms: _111  and  _114
REMARK   49  A    between atoms: _114  and  _115
REMARK   50  A    between atoms: _115  and  _116
REMARK   51  A    between atoms: _116  and  _117
REMARK   52  A    between atoms: _117  and  _118
REMARK   53  A    between atoms: _122  and  _124
REMARK   54  A    between atoms: _124  and  _125
REMARK   55  A    between atoms: _124  and  _127
REMARK   56  A    between atoms: _127  and  _128
REMARK   57  A    between atoms: _128  and  _129
REMARK   58  A    between atoms: _131  and  _133
REMARK   59  A    between atoms: _133  and  _134
REMARK   60  A    between atoms: _133  and  _136
REMARK   61  A    between atoms: _136  and  _137
REMARK   62  A    between atoms: _140  and  _142
REMARK   63  A    between atoms: _142  and  _143
REMARK   64  A    between atoms: _145  and  _147
REMARK   65  A    between atoms: _147  and  _148
REMARK   66  A    between atoms: _150  and  _152
REMARK   67  A    between atoms: _152  and  _153
REMARK   68  A    between atoms: _152  and  _155
REMARK   69  A    between atoms: _155  and  _156
REMARK   70  A    between atoms: _159  and  _161
REMARK   71  A    between atoms: _161  and  _162
REMARK   72  A    between atoms: _164  and  _166
REMARK   73  A    between atoms: _166  and  _167
REMARK   74  A    between atoms: _169  and  _171
REMARK   75  A    between atoms: _171  and  _172
REMARK   76  A    between atoms: _171  and  _174
REMARK   77  A    between atoms: _174  and  _175
REMARK   78  A    between atoms: _181  and  _183
REMARK   79  A    between atoms: _183  and  _184
REMARK   80  A    between atoms: _183  and  _186
REMARK   81  A    between atoms: _186  and  _187
REMARK   82  A    between atoms: _190  and  _192
REMARK   83  A    between atoms: _192  and  _193
REMARK   84  A    between atoms: _192  and  _195
REMARK   85  A    between atoms: _198  and  _200
REMARK   86  A    between atoms: _200  and  _201
REMARK   87  A    between atoms: _200  and  _203
REMARK   88  A    between atoms: _203  and  _204
REMARK   89  A    between atoms: _207  and  _209
REMARK   90  A    between atoms: _209  and  _210
REMARK   91  A    between atoms: _209  and  _212
REMARK   92  A    between atoms: _212  and  _213
REMARK   93  A    between atoms: _217  and  _218
REMARK   94  A    between atoms: _223  and  _225
REMARK   95  A    between atoms: _225  and  _226
REMARK   96  A    between atoms: _225  and  _228
REMARK   97  A    between atoms: _231  and  _233
REMARK   98  A    between atoms: _233  and  _234
REMARK   99  A    between atoms: _233  and  _236
REMARK  100  A    between atoms: _236  and  _237
REMARK  101  A    between atoms: _242  and  _244
REMARK  102  A    between atoms: _244  and  _245
REMARK  103  A    between atoms: _244  and  _247
REMARK  104  A    between atoms: _247  and  _248
REMARK  105  A    between atoms: _251  and  _253
REMARK  106  A    between atoms: _253  and  _254
REMARK  107  A    between atoms: _253  and  _256
REMARK  108  A    between atoms: _256  and  _257
REMARK  109  A    between atoms: _260  and  _262
REMARK  110  A    between atoms: _262  and  _263
REMARK  111  A    between atoms: _265  and  _267
REMARK  112  A    between atoms: _267  and  _268
REMARK  113  A    between atoms: _267  and  _270
REMARK  114  A    between atoms: _270  and  _271
REMARK  115  A    between atoms: _271  and  _272
REMARK  116  A    between atoms: _272  and  _273
REMARK  117  A    between atoms: _282  and  _284
REMARK  118  A    between atoms: _284  and  _285
REMARK  119  A    between atoms: _284  and  _287
REMARK  120  A    between atoms: _287  and  _288
REMARK  121  A    between atoms: _293  and  _295
REMARK  122  A    between atoms: _295  and  _296
REMARK  123  A    between atoms: _295  and  _298
REMARK  124  A    between atoms: _298  and  _299
REMARK  125  A    between atoms: _299  and  _300
REMARK  126  A    between atoms: _300  and  _301
REMARK  127  A    between atoms: _310  and  _312
REMARK  128  A    between atoms: _312  and  _313
REMARK  129  A    between atoms: _312  and  _315
REMARK  130  A    between atoms: _315  and  _316
REMARK  131  A    between atoms: _319  and  _321
REMARK  132  A    between atoms: _321  and  _322
REMARK  133  A    between atoms: _321  and  _324
REMARK  134  A    between atoms: _324  and  _325
REMARK  135  A    between atoms: _328  and  _330
REMARK  136  A    between atoms: _330  and  _331
REMARK  137  A    between atoms: _330  and  _333
REMARK  138  A    between atoms: _333  and  _334
REMARK  139  A    between atoms: _337  and  _339
REMARK  140  A    between atoms: _339  and  _340
REMARK  141  A    between atoms: _339  and  _342
REMARK  142  A    between atoms: _342  and  _343
REMARK  143  A    between atoms: _346  and  _348
REMARK  144  A    between atoms: _348  and  _349
REMARK  145  A    between atoms: _348  and  _351
REMARK  146  A    between atoms: _351  and  _352
REMARK  147  A    between atoms: _355  and  _357
REMARK  148  A    between atoms: _357  and  _358
REMARK  149  A    between atoms: _360  and  _362
REMARK  150  A    between atoms: _362  and  _363
REMARK  151  A    between atoms: _366  and  _368
REMARK  152  A    between atoms: _368  and  _369
REMARK  153  A    between atoms: _368  and  _371
REMARK  154  A    between atoms: _371  and  _372
REMARK  155  A    between atoms: _375  and  _377
REMARK  156  A    between atoms: _377  and  _378
REMARK  157  A    between atoms: _377  and  _380
REMARK  158  A    between atoms: _380  and  _381
REMARK  159  A    between atoms: _384  and  _386
REMARK  160  A    between atoms: _386  and  _387
REMARK  161  A    between atoms: _386  and  _389
REMARK  162  A    between atoms: _389  and  _390
REMARK  163  A    between atoms: _393  and  _395
REMARK  164  A    between atoms: _395  and  _396
REMARK  165  A    between atoms: _395  and  _398
REMARK  166  A    between atoms: _401  and  _403
REMARK  167  A    between atoms: _403  and  _404
REMARK  168  A    between atoms: _403  and  _406
REMARK  169  A    between atoms: _406  and  _407
REMARK  170  A    between atoms: _407  and  _408
REMARK  171  A    between atoms: _408  and  _409
REMARK  172  A    between atoms: _409  and  _410
REMARK  173  A    between atoms: _414  and  _416
REMARK  174  A    between atoms: _416  and  _417
REMARK  175  A    between atoms: _416  and  _419
REMARK  176  A    between atoms: _419  and  _420
REMARK  177  A    between atoms: _420  and  _421
REMARK  178  A    between atoms: _423  and  _425
REMARK  179  A    between atoms: _425  and  _426
REMARK  180  A    between atoms: _425  and  _428
REMARK  181  A    between atoms: _428  and  _429
REMARK  182  A    between atoms: _432  and  _434
REMARK  183  A    between atoms: _434  and  _435
REMARK  184  A    between atoms: _437  and  _439
REMARK  185  A    between atoms: _439  and  _440
REMARK  186  A    between atoms: _442  and  _444
REMARK  187  A    between atoms: _444  and  _445
REMARK  188  A    between atoms: _444  and  _447
REMARK  189  A    between atoms: _447  and  _448
REMARK  190  A    between atoms: _451  and  _453
REMARK  191  A    between atoms: _453  and  _454
REMARK  192  A    between atoms: _456  and  _458
REMARK  193  A    between atoms: _458  and  _459
REMARK  194  A    between atoms: _461  and  _463
REMARK  195  A    between atoms: _463  and  _464
REMARK  196  A    between atoms: _463  and  _466
REMARK  197  A    between atoms: _466  and  _467
REMARK  198  A    between atoms: _473  and  _475
REMARK  199  A    between atoms: _475  and  _476
REMARK  200  A    between atoms: _475  and  _478
REMARK  201  A    between atoms: _478  and  _479
REMARK  202  A    between atoms: _482  and  _484
REMARK  203  A    between atoms: _484  and  _485
REMARK  204  A    between atoms: _484  and  _487
REMARK  205  A    between atoms: _490  and  _492
REMARK  206  A    between atoms: _492  and  _493
REMARK  207  A    between atoms: _492  and  _495
REMARK  208  A    between atoms: _495  and  _496
REMARK  209  A    between atoms: _499  and  _501
REMARK  210  A    between atoms: _501  and  _502
REMARK  211  A    between atoms: _501  and  _504
REMARK  212  A    between atoms: _504  and  _505
REMARK  213  A    between atoms: _509  and  _510
REMARK  214  A    between atoms: _515  and  _517
REMARK  215  A    between atoms: _517  and  _518
REMARK  216  A    between atoms: _517  and  _520
REMARK  217  A    between atoms: _523  and  _525
REMARK  218  A    between atoms: _525  and  _526
REMARK  219  A    between atoms: _525  and  _528
REMARK  220  A    between atoms: _528  and  _529
REMARK  221  A    between atoms: _534  and  _536
REMARK  222  A    between atoms: _536  and  _537
REMARK  223  A    between atoms: _536  and  _539
REMARK  224  A    between atoms: _539  and  _540
REMARK  225  A    between atoms: _543  and  _545
REMARK  226  A    between atoms: _545  and  _546
REMARK  227  A    between atoms: _545  and  _548
REMARK  228  A    between atoms: _548  and  _549
REMARK  229  A    between atoms: _552  and  _554
REMARK  230  A    between atoms: _554  and  _555
REMARK  231  A    between atoms: _557  and  _559
REMARK  232  A    between atoms: _559  and  _560
REMARK  233  A    between atoms: _559  and  _562
REMARK  234  A    between atoms: _562  and  _563
REMARK  235  A    between atoms: _563  and  _564
REMARK  236  A    between atoms: _564  and  _565
REMARK  237  A    between atoms: _574  and  _576
REMARK  238  A    between atoms: _576  and  _577
REMARK  239  A    between atoms: _576  and  _579
REMARK  240  A    between atoms: _579  and  _580
REMARK                            x       y       z     vdW  Elec       q    Type
REMARK                         _______ _______ _______ _____ _____    ______ ____
ROOT
ATOM      1  CA  LEU A   1      21.230  30.514   6.503  0.00  0.00    +0.133 C 
ENDROOT
BRANCH   1   2
ATOM      2  N   LEU A   1      20.490  31.710   6.876  0.00  0.00    -0.239 NA
ATOM      3  H   LEU A   1      19.830  31.663   7.679  0.00  0.00    +0.142 HD
ENDBRANCH   1   2
BRANCH   1   4
ATOM      4  C   LEU A   1      20.360  29.636   5.608  0.00  0.00    +0.224 C 
ATOM      5  O   LEU A   1      19.149  29.526   5.816  0.00  0.00    -0.287 OA
ENDBRANCH   1   4
BRANCH   1   6
ATOM      6  CB  LEU A   1      21.684  29.751   7.753  0.00  0.00    +0.025 C 
BRANCH   6   7
ATOM      7  CG  LEU A   1      22.262  30.575   8.920  0.00  0.00    +0.002 C 
ATOM      8  CD2 LEU A   1      22.534  29.690  10.119  0.00  0.00    +0.000 C 
ATOM      9  CD1 LEU A   1      23.525  31.352   8.527  0.00  0.00    +0.000 C 
ENDBRANCH   6   7
ENDBRANCH   1   6
TORSDOF 4
REMARK  Name = ../refined-set-2016/3kdc/3kdc_pocket.pdb
REMARK  240 active torsions:
REMARK  status: ('A' for Active; 'I' for Inactive)
REMARK    1  A    between atoms: _1  and  _3
REMARK    2  A    between atoms: _3  and  _4
REMARK    3  A    between atoms: _3  and  _6
REMARK    4  A    between atoms: _6  and  _7
REMARK    5  A    between atoms: _7  and  _8
REMARK    6  A    between atoms: _8  and  _9
REMARK    7  A    between atoms: _18  and  _20
REMARK    8  A    between atoms: _20  and  _21
REMARK    9  A    between atoms: _20  and  _23
REMARK   10  A    between atoms: _23  and  _24
REMARK   11  A    between atoms: _27  and  _29
REMARK   12  A    between atoms: _29  and  _30
REMARK   13  A    between atoms: _29  and  _32
REMARK   14  A    between atoms: _32  and  _33
REMARK   15  A    between atoms: _36  and  _38
REMARK   16  A    between atoms: _38  and  _39
REMARK   17  A    between atoms: _38  and  _41
REMARK   18  A    between atoms: _41  and  _42
REMARK   19  A    between atoms: _45  and  _47
REMARK   20  A    between atoms: _47  and  _48
REMARK   21  A    between atoms: _47  and  _50
REMARK   22  A    between atoms: _50  and  _51
REMARK   23  A    between atoms: _54  and  _56
REMARK   24  A    between atoms: _56  and  _57
REMARK   25  A    between atoms: _59  and  _61
REMARK   26  A    between atoms: _61  and  _62
REMARK   27  A    between atoms: _65  and  _67
REMARK   28  A    between atoms: _67  and  _68
REMARK   29  A    between atoms: _67  and  _70
REMARK   30  A    between atoms: _70  and  _71
REMARK   31  A    between atoms: _74  and  _76
REMARK   32  A    between atoms: _76  and  _77
REMARK   33  A    between atoms: _76  and  _79
REMARK   34  A    between atoms: _79  and  _80
REMARK   35  A    between atoms: _83  and  _85
REMARK   36  A    between atoms: _85  and  _86
REMARK   37  A    between atoms: _85  and  _88
REMARK   38  A    between atoms: _88  and  _89
REMARK   39  A    between atoms: _92  and  _94
REMARK   40  A    between atoms: _94  and  _95
REMARK   41  A    between atoms: _94  and  _97
REMARK   42  A    between atoms: _100  and  _102
REMARK   43  A    between atoms: _102  and  _103
REMARK   44  A    between atoms: _102  and  _105
REMARK   45  A    between atoms: _105  and  _106
REMARK   46  A    between atoms: _109  and  _111
REMARK   47  A    between atoms: _111  and  _112
REMARK   48  A    between atoms: _111  and  _114
REMARK   49  A    between atoms: _114  and  _115
REMARK   50  A    between atoms: _115  and  _116
REMARK   51  A    between atoms: _116  and  _117
REMARK   52  A    between atoms: _117  and  _118
REMARK   53  A    between atoms: _122  and  _124
REMARK   54  A    between atoms: _124  and  _125
REMARK   55  A    between atoms: _124  and  _127
REMARK   56  A    between atoms: _127  and  _128
REMARK   57  A    between atoms: _128  and  _129
REMARK   58  A    between atoms: _131  and  _133
REMARK   59  A    between atoms: _133  and  _134
REMARK   60  A    between atoms: _133  and  _136
REMARK   61  A    between atoms: _136  and  _137
REMARK   62  A    between atoms: _140  and  _142
REMARK   63  A    between atoms: _142  and  _143
REMARK   64  A    between atoms: _145  and  _147
REMARK   65  A    between atoms: _147  and  _148
REMARK   66  A    between atoms: _150  and  _152
REMARK   67  A    between atoms: _152  and  _153
REMARK   68  A    between atoms: _152  and  _155
REMARK   69  A    between atoms: _155  and  _156
REMARK   70  A    between atoms: _159  and  _161
REMARK   71  A    between atoms: _161  and  _162
REMARK   72  A    between atoms: _164  and  _166
REMARK   73  A    between atoms: _166  and  _167
REMARK   74  A    between atoms: _169  and  _171
REMARK   75  A    between atoms: _171  and  _172
REMARK   76  A    between atoms: _171  and  _174
REMARK   77  A    between atoms: _174  and  _175
REMARK   78  A    between atoms: _181  and  _183
REMARK   79  A    between atoms: _183  and  _184
REMARK   80  A    between atoms: _183  and  _186
REMARK   81  A    between atoms: _186  and  _187
REMARK   82  A    between atoms: _190  and  _192
REMARK   83  A    between atoms: _192  and  _193
REMARK   84  A    between atoms: _192  and  _195
REMARK   85  A    between atoms: _198  and  _200
REMARK   86  A    between atoms: _200  and  _201
REMARK   87  A    between atoms: _200  and  _203
REMARK   88  A    between atoms: _203  and  _204
REMARK   89  A    between atoms: _207  and  _209
REMARK   90  A    between atoms: _209  and  _210
REMARK   91  A    between atoms: _209  and  _212
REMARK   92  A    between atoms: _212  and  _213
REMARK   93  A    between atoms: _217  and  _218
REMARK   94  A    between atoms: _223  and  _225
REMARK   95  A    between atoms: _225  and  _226
REMARK   96  A    between atoms: _225  and  _228
REMARK   97  A    between atoms: _231  and  _233
REMARK   98  A    between atoms: _233  and  _234
REMARK   99  A    between atoms: _233  and  _236
REMARK  100  A    between atoms: _236  and  _237
REMARK  101  A    between atoms: _242  and  _244
REMARK  102  A    between atoms: _244  and  _245
REMARK  103  A    between atoms: _244  and  _247
REMARK  104  A    between atoms: _247  and  _248
REMARK  105  A    between atoms: _251  and  _253
REMARK  106  A    between atoms: _253  and  _254
REMARK  107  A    between atoms: _253  and  _256
REMARK  108  A    between atoms: _256  and  _257
REMARK  109  A    between atoms: _260  and  _262
REMARK  110  A    between atoms: _262  and  _263
REMARK  111  A    between atoms: _265  and  _267
REMARK  112  A    between atoms: _267  and  _268
REMARK  113  A    between atoms: _267  and  _270
REMARK  114  A    between atoms: _270  and  _271
REMARK  115  A    between atoms: _271  and  _272
REMARK  116  A    between atoms: _272  and  _273
REMARK  117  A    between atoms: _282  and  _284
REMARK  118  A    between atoms: _284  and  _285
REMARK  119  A    between atoms: _284  and  _287
REMARK  120  A    between atoms: _287  and  _288
REMARK  121  A    between atoms: _293  and  _295
REMARK  122  A    between atoms: _295  and  _296
REMARK  123  A    between atoms: _295  and  _298
REMARK  124  A    between atoms: _298  and  _299
REMARK  125  A    between atoms: _299  and  _300
REMARK  126  A    between atoms: _300  and  _301
REMARK  127  A    between atoms: _310  and  _312
REMARK  128  A    between atoms: _312  and  _313
REMARK  129  A    between atoms: _312  and  _315
REMARK  130  A    between atoms: _315  and  _316
REMARK  131  A    between atoms: _319  and  _321
REMARK  132  A    between atoms: _321  and  _322
REMARK  133  A    between atoms: _321  and  _324
REMARK  134  A    between atoms: _324  and  _325
REMARK  135  A    between atoms: _328  and  _330
REMARK  136  A    between atoms: _330  and  _331
REMARK  137  A    between atoms: _330  and  _333
REMARK  138  A    between atoms: _333  and  _334
REMARK  139  A    between atoms: _337  and  _339
REMARK  140  A    between atoms: _339  and  _340
REMARK  141  A    between atoms: _339  and  _342
REMARK  142  A    between atoms: _342  and  _343
REMARK  143  A    between atoms: _346  and  _348
REMARK  144  A    between atoms: _348  and  _349
REMARK  145  A    between atoms: _348  and  _351
REMARK  146  A    between atoms: _351  and  _352
REMARK  147  A    between atoms: _355  and  _357
REMARK  148  A    between atoms: _357  and  _358
REMARK  149  A    between atoms: _360  and  _362
REMARK  150  A    between atoms: _362  and  _363
REMARK  151  A    between atoms: _366  and  _368
REMARK  152  A    between atoms: _368  and  _369
REMARK  153  A    between atoms: _368  and  _371
REMARK  154  A    between atoms: _371  and  _372
REMARK  155  A    between atoms: _375  and  _377
REMARK  156  A    between atoms: _377  and  _378
REMARK  157  A    between atoms: _377  and  _380
REMARK  158  A    between atoms: _380  and  _381
REMARK  159  A    between atoms: _384  and  _386
REMARK  160  A    between atoms: _386  and  _387
REMARK  161  A    between atoms: _386  and  _389
REMARK  162  A    between atoms: _389  and  _390
REMARK  163  A    between atoms: _393  and  _395
REMARK  164  A    between atoms: _395  and  _396
REMARK  165  A    between atoms: _395  and  _398
REMARK  166  A    between atoms: _401  and  _403
REMARK  167  A    between atoms: _403  and  _404
REMARK  168  A    between atoms: _403  and  _406
REMARK  169  A    between atoms: _406  and  _407
REMARK  170  A    between atoms: _407  and  _408
REMARK  171  A    between atoms: _408  and  _409
REMARK  172  A    between atoms: _409  and  _410
REMARK  173  A    between atoms: _414  and  _416
REMARK  174  A    between atoms: _416  and  _417
REMARK  175  A    between atoms: _416  and  _419
REMARK  176  A    between atoms: _419  and  _420
REMARK  177  A    between atoms: _420  and  _421
REMARK  178  A    between atoms: _423  and  _425
REMARK  179  A    between atoms: _425  and  _426
REMARK  180  A    between atoms: _425  and  _428
REMARK  181  A    between atoms: _428  and  _429
REMARK  182  A    between atoms: _432  and  _434
REMARK  183  A    between atoms: _434  and  _435
REMARK  184  A    between atoms: _437  and  _439
REMARK  185  A    between atoms: _439  and  _440
REMARK  186  A    between atoms: _442  and  _444
REMARK  187  A    between atoms: _444  and  _445
REMARK  188  A    between atoms: _444  and  _447
REMARK  189  A    between atoms: _447  and  _448
REMARK  190  A    between atoms: _451  and  _453
REMARK  191  A    between atoms: _453  and  _454
REMARK  192  A    between atoms: _456  and  _458
REMARK  193  A    between atoms: _458  and  _459
REMARK  194  A    between atoms: _461  and  _463
REMARK  195  A    between atoms: _463  and  _464
REMARK  196  A    between atoms: _463  and  _466
REMARK  197  A    between atoms: _466  and  _467
REMARK  198  A    between atoms: _473  and  _475
REMARK  199  A    between atoms: _475  and  _476
REMARK  200  A    between atoms: _475  and  _478
REMARK  201  A    between atoms: _478  and  _479
REMARK  202  A    between atoms: _482  and  _484
REMARK  203  A    between atoms: _484  and  _485
REMARK  204  A    between atoms: _484  and  _487
REMARK  205  A    between atoms: _490  and  _492
REMARK  206  A    between atoms: _492  and  _493
REMARK  207  A    between atoms: _492  and  _495
REMARK  208  A    between atoms: _495  and  _496
REMARK  209  A    between atoms: _499  and  _501
REMARK  210  A    between atoms: _501  and  _502
REMARK  211  A    between atoms: _501  and  _504
REMARK  212  A    between atoms: _504  and  _505
REMARK  213  A    between atoms: _509  and  _510
REMARK  214  A    between atoms: _515  and  _517
REMARK  215  A    between atoms: _517  and  _518
REMARK  216  A    between atoms: _517  and  _520
REMARK  217  A    between atoms: _523  and  _525
REMARK  218  A    between atoms: _525  and  _526
REMARK  219  A    between atoms: _525  and  _528
REMARK  220  A    between atoms: _528  and  _529
REMARK  221  A    between atoms: _534  and  _536
REMARK  222  A    between atoms: _536  and  _537
REMARK  223  A    between atoms: _536  and  _539
REMARK  224  A    between atoms: _539  and  _540
REMARK  225  A    between atoms: _543  and  _545
REMARK  226  A    between atoms: _545  and  _546
REMARK  227  A    between atoms: _545  and  _548
REMARK  228  A    between atoms: _548  and  _549
REMARK  229  A    between atoms: _552  and  _554
REMARK  230  A    between atoms: _554  and  _555
REMARK  231  A    between atoms: _557  and  _559
REMARK  232  A    between atoms: _559  and  _560
REMARK  233  A    between atoms: _559  and  _562
REMARK  234  A    between atoms: _562  and  _563
REMARK  235  A    between atoms: _563  and  _564
REMARK  236  A    between atoms: _564  and  _565
REMARK  237  A    between atoms: _574  and  _576
REMARK  238  A    between atoms: _576  and  _577
REMARK  239  A    between atoms: _576  and  _579
REMARK  240  A    between atoms: _579  and  _580
REMARK                            x       y       z     vdW  Elec       q    Type
REMARK                         _______ _______ _______ _____ _____    ______ ____
ROOT
ATOM      1  C   ILE A   5      13.473  29.679  11.260  0.00  0.00    +0.241 C 
ATOM      2  N   ILE A   6      12.674  30.455  11.988  0.00  0.00    -0.297 N 
ATOM      3  H   ILE A   6      11.797  30.058  12.382  0.00  0.00    +0.150 HD
ATOM      4  O   ILE A   5      14.408  30.120  10.591  0.00  0.00    -0.273 OA
ENDROOT
BRANCH   2   5
ATOM      5  CA  ILE A   6      13.005  31.852  12.243  0.00  0.00    +0.149 C 
BRANCH   5   6
ATOM      6  C   ILE A   6      13.673  31.907  13.621  0.00  0.00    +0.241 C 
ATOM      7  O   ILE A   6      13.048  31.582  14.632  0.00  0.00    -0.273 OA
ATOM      8  N   GLY A   7      14.947  32.289  13.647  0.00  0.00    -0.295 N 
ATOM      9  H   GLY A   7      15.404  32.581  12.760  0.00  0.00    +0.150 HD
BRANCH   8  10
ATOM     10  CA  GLY A   7      15.723  32.311  14.883  0.00  0.00    +0.176 C 
BRANCH  10  11
ATOM     11  C   GLY A   7      15.743  33.672  15.547  0.00  0.00    +0.243 C 
ATOM     12  N   ARG A   8      16.471  33.767  16.657  0.00  0.00    -0.297 N 
ATOM     13  H   ARG A   8      17.062  32.960  16.941  0.00  0.00    +0.150 HD
ATOM     14  O   GLY A   7      15.128  34.624  15.055  0.00  0.00    -0.273 OA
BRANCH  12  15
ATOM     15  CA  ARG A   8      16.468  34.970  17.491  0.00  0.00    +0.149 C 
BRANCH  15  16
ATOM     16  C   ARG A   8      16.945  36.226  16.766  0.00  0.00    +0.241 C 
ATOM     17  O   ARG A   8      16.462  37.321  17.055  0.00  0.00    -0.273 OA
ATOM     18  N   ASN A   9      17.872  36.066  15.820  0.00  0.00    -0.298 N 
ATOM     19  H   ASN A   9      18.223  35.109  15.612  0.00  0.00    +0.150 HD
BRANCH  18  20
ATOM     20  CA  ASN A   9      18.409  37.204  15.066  0.00  0.00    +0.146 C 
BRANCH  20  21
ATOM     21  C   ASN A   9      17.330  38.023  14.346  0.00  0.00    +0.227 C 
ATOM     22  O   ASN A   9      17.472  39.230  14.179  0.00  0.00    -0.286 OA
ENDBRANCH  20  21
BRANCH  20  23
ATOM     23  CB  ASN A   9      19.504  36.755  14.085  0.00  0.00    +0.112 C 
BRANCH  23  24
ATOM     24  CG  ASN A   9      18.947  36.069  12.845  0.00  0.00    +0.222 C 
ATOM     25  OD1 ASN A   9      18.223  35.076  12.936  0.00  0.00    -0.275 OA
ATOM     26  ND2 ASN A   9      19.290  36.597  11.679  0.00  0.00    -0.329 N 
ATOM     27 HD21 ASN A   9      19.904  37.436  11.649  0.00  0.00    +0.145 HD
ATOM     28 HD22 ASN A   9      18.946  36.172  10.794  0.00  0.00    +0.145 HD
ENDBRANCH  23  24
ENDBRANCH  20  23
ENDBRANCH  18  20
ENDBRANCH  15  16
BRANCH  15  29
ATOM     29  CB  ARG A   8      17.284  34.752  18.767  0.00  0.00    +0.033 C 
BRANCH  29  30
ATOM     30  CG  ARG A   8      16.638  33.813  19.787  0.00  0.00    +0.045 C 
BRANCH  30  31
ATOM     31  CD  ARG A   8      17.435  33.756  21.096  0.00  0.00    +0.174 C 
BRANCH  31  32
ATOM     32  NE  ARG A   8      18.807  33.303  20.876  0.00  0.00    -0.265 N 
ATOM     33  CZ  ARG A   8      19.877  34.099  20.805  0.00  0.00    +0.342 C 
ATOM     34  NH2 ARG A   8      19.757  35.414  20.953  0.00  0.00    -0.292 N 
ATOM     35 HH21 ARG A   8      18.822  35.835  21.126  0.00  0.00    +0.255 HD
ATOM     36 HH22 ARG A   8      20.598  36.023  20.895  0.00  0.00    +0.255 HD
ATOM     37  NH1 ARG A   8      21.076  33.576  20.583  0.00  0.00    -0.292 N 
ATOM     38 HH11 ARG A   8      21.911  34.194  20.527  0.00  0.00    +0.255 HD
ATOM     39 HH12 ARG A   8      21.181  32.548  20.465  0.00  0.00    +0.255 HD
ATOM     40  HE  ARG A   8      18.962  32.281  20.766  0.00  0.00    +0.259 HD
ENDBRANCH  31  32
ENDBRANCH  30  31
ENDBRANCH  29  30
ENDBRANCH  15  29
ENDBRANCH  12  15
ENDBRANCH  10  11
ENDBRANCH   8  10
ENDBRANCH   5   6
BRANCH   5  41
ATOM     41  CB  ILE A   6      11.746  32.767  12.192  0.00  0.00    +0.027 C 
ATOM     42  CG2 ILE A   6      12.114  34.223  12.490  0.00  0.00    +0.002 C 
BRANCH  41  43
ATOM     43  CG1 ILE A   6      11.006  32.628  10.845  0.00  0.00    +0.002 C 
ATOM     44  CD1 ILE A   6      11.849  32.947   9.579  0.00  0.00    +0.000 C 
ENDBRANCH  41  43
ENDBRANCH   5  41
ENDBRANCH   2   5
BRANCH   1  45
ATOM     45  CA  ILE A   5      13.175  28.182  11.277  0.00  0.00    +0.149 C 
BRANCH  45  48
ATOM     46  C   ASN A   4      12.009  27.019   9.464  0.00  0.00    +0.241 C 
ATOM     47  O   ASN A   4      10.930  26.952  10.067  0.00  0.00    -0.273 OA
ATOM     48  N   ILE A   5      13.080  27.657   9.922  0.00  0.00    -0.297 N 
ATOM     49  H   ILE A   5      13.890  27.788   9.282  0.00  0.00    +0.150 HD
BRANCH  46  50
ATOM     50  CA  ASN A   4      12.168  26.397   8.086  0.00  0.00    +0.158 C 
BRANCH  50  53
ATOM     51  C   VAL A   3      12.534  24.100   8.819  0.00  0.00    +0.241 C 
ATOM     52  O   VAL A   3      13.647  24.378   9.276  0.00  0.00    -0.273 OA
ATOM     53  N   ASN A   4      11.788  24.980   8.144  0.00  0.00    -0.297 N 
ATOM     54  H   ASN A   4      10.929  24.657   7.655  0.00  0.00    +0.150 HD
BRANCH  51  55
ATOM     55  CA  VAL A   3      11.964  22.695   9.013  0.00  0.00    +0.149 C 
BRANCH  55  57
ATOM     56  C   PRO A   2      12.869  20.559   8.198  0.00  0.00    +0.241 C 
ATOM     57  N   VAL A   3      13.047  21.741   8.779  0.00  0.00    -0.297 N 
ATOM     58  H   VAL A   3      14.007  22.001   9.083  0.00  0.00    +0.150 HD
ATOM     59  O   PRO A   2      11.789  20.178   7.759  0.00  0.00    -0.273 OA
BRANCH  56  65
ATOM     60  C   THR A   1      15.803  21.205   7.312  0.00  0.00    +0.244 C 
ATOM     61  N   PRO A   2      15.371  20.372   8.279  0.00  0.00    -0.272 N 
ATOM     62  CD  PRO A   2      16.022  20.018   9.554  0.00  0.00    +0.094 C 
ATOM     63  CG  PRO A   2      15.001  19.157  10.241  0.00  0.00    +0.024 C 
ATOM     64  CB  PRO A   2      14.100  18.614   9.206  0.00  0.00    +0.031 C 
ATOM     65  CA  PRO A   2      14.099  19.660   8.087  0.00  0.00    +0.152 C 
ATOM     66  O   THR A   1      15.196  21.351   6.247  0.00  0.00    -0.273 OA
BRANCH  60  67
ATOM     67  CA  THR A   1      17.124  21.951   7.550  0.00  0.00    +0.172 C 
BRANCH  67  68
ATOM     68  N   THR A   1      17.925  21.929   6.326  0.00  0.00    -0.236 NA
ATOM     69  H   THR A   1      17.994  22.795   5.754  0.00  0.00    +0.142 HD
ENDBRANCH  67  68
BRANCH  67  70
ATOM     70  CB  THR A   1      16.886  23.406   8.062  0.00  0.00    +0.135 C 
ATOM     71  CG2 THR A   1      16.106  24.250   7.049  0.00  0.00    +0.034 C 
BRANCH  70  72
ATOM     72  OG1 THR A   1      16.175  23.376   9.303  0.00  0.00    -0.383 OA
ATOM     73  HG1 THR A   1      15.302  22.929   9.171  0.00  0.00    +0.210 HD
ENDBRANCH  70  72
ENDBRANCH  67  70
ENDBRANCH  60  67
ENDBRANCH  56  65
ENDBRANCH  55  57
BRANCH  55  74
ATOM     74  CB  VAL A   3      11.412  22.565  10.471  0.00  0.00    +0.027 C 
ATOM     75  CG2 VAL A   3      10.328  23.608  10.763  0.00  0.00    +0.002 C 
ATOM     76  CG1 VAL A   3      10.874  21.158  10.728  0.00  0.00    +0.002 C 
ENDBRANCH  55  74
ENDBRANCH  51  55
ENDBRANCH  50  53
BRANCH  50  77
ATOM     77  CB  ASN A   4      11.341  27.177   7.060  0.00  0.00    +0.114 C 
BRANCH  77  78
ATOM     78  CG  ASN A   4      11.495  26.645   5.646  0.00  0.00    +0.222 C 
ATOM     79  OD1 ASN A   4      12.588  26.251   5.227  0.00  0.00    -0.275 OA
ATOM     80  ND2 ASN A   4      10.392  26.637   4.897  0.00  0.00    -0.329 N 
ATOM     81 HD21 ASN A   4       9.493  26.979   5.292  0.00  0.00    +0.145 HD
ATOM     82 HD22 ASN A   4      10.431  26.289   3.918  0.00  0.00    +0.145 HD
ENDBRANCH  77  78
ENDBRANCH  50  77
ENDBRANCH  46  50
ENDBRANCH  45  48
BRANCH  45  83
ATOM     83  CB  ILE A   5      14.289  27.433  12.053  0.00  0.00    +0.027 C 
ATOM     84  CG2 ILE A   5      14.680  28.166  13.332  0.00  0.00    +0.002 C 
BRANCH  83  85
ATOM     85  CG1 ILE A   5      13.853  25.998  12.351  0.00  0.00    +0.002 C 
ATOM     86  CD1 ILE A   5      14.998  25.040  12.406  0.00  0.00    +0.000 C 
ENDBRANCH  83  85
ENDBRANCH  45  83
ENDBRANCH   1  45
TORSDOF 32
REMARK  Name = ../refined-set-2016/3kdc/3kdc_pocket.pdb
REMARK  240 active torsions:
REMARK  status: ('A' for Active; 'I' for Inactive)
REMARK    1  A    between atoms: _1  and  _3
REMARK    2  A    between atoms: _3  and  _4
REMARK    3  A    between atoms: _3  and  _6
REMARK    4  A    between atoms: _6  and  _7
REMARK    5  A    between atoms: _7  and  _8
REMARK    6  A    between atoms: _8  and  _9
REMARK    7  A    between atoms: _18  and  _20
REMARK    8  A    between atoms: _20  and  _21
REMARK    9  A    between atoms: _20  and  _23
REMARK   10  A    between atoms: _23  and  _24
REMARK   11  A    between atoms: _27  and  _29
REMARK   12  A    between atoms: _29  and  _30
REMARK   13  A    between atoms: _29  and  _32
REMARK   14  A    between atoms: _32  and  _33
REMARK   15  A    between atoms: _36  and  _38
REMARK   16  A    between atoms: _38  and  _39
REMARK   17  A    between atoms: _38  and  _41
REMARK   18  A    between atoms: _41  and  _42
REMARK   19  A    between atoms: _45  and  _47
REMARK   20  A    between atoms: _47  and  _48
REMARK   21  A    between atoms: _47  and  _50
REMARK   22  A    between atoms: _50  and  _51
REMARK   23  A    between atoms: _54  and  _56
REMARK   24  A    between atoms: _56  and  _57
REMARK   25  A    between atoms: _59  and  _61
REMARK   26  A    between atoms: _61  and  _62
REMARK   27  A    between atoms: _65  and  _67
REMARK   28  A    between atoms: _67  and  _68
REMARK   29  A    between atoms: _67  and  _70
REMARK   30  A    between atoms: _70  and  _71
REMARK   31  A    between atoms: _74  and  _76
REMARK   32  A    between atoms: _76  and  _77
REMARK   33  A    between atoms: _76  and  _79
REMARK   34  A    between atoms: _79  and  _80
REMARK   35  A    between atoms: _83  and  _85
REMARK   36  A    between atoms: _85  and  _86
REMARK   37  A    between atoms: _85  and  _88
REMARK   38  A    between atoms: _88  and  _89
REMARK   39  A    between atoms: _92  and  _94
REMARK   40  A    between atoms: _94  and  _95
REMARK   41  A    between atoms: _94  and  _97
REMARK   42  A    between atoms: _100  and  _102
REMARK   43  A    between atoms: _102  and  _103
REMARK   44  A    between atoms: _102  and  _105
REMARK   45  A    between atoms: _105  and  _106
REMARK   46  A    between atoms: _109  and  _111
REMARK   47  A    between atoms: _111  and  _112
REMARK   48  A    between atoms: _111  and  _114
REMARK   49  A    between atoms: _114  and  _115
REMARK   50  A    between atoms: _115  and  _116
REMARK   51  A    between atoms: _116  and  _117
REMARK   52  A    between atoms: _117  and  _118
REMARK   53  A    between atoms: _122  and  _124
REMARK   54  A    between atoms: _124  and  _125
REMARK   55  A    between atoms: _124  and  _127
REMARK   56  A    between atoms: _127  and  _128
REMARK   57  A    between atoms: _128  and  _129
REMARK   58  A    between atoms: _131  and  _133
REMARK   59  A    between atoms: _133  and  _134
REMARK   60  A    between atoms: _133  and  _136
REMARK   61  A    between atoms: _136  and  _137
REMARK   62  A    between atoms: _140  and  _142
REMARK   63  A    between atoms: _142  and  _143
REMARK   64  A    between atoms: _145  and  _147
REMARK   65  A    between atoms: _147  and  _148
REMARK   66  A    between atoms: _150  and  _152
REMARK   67  A    between atoms: _152  and  _153
REMARK   68  A    between atoms: _152  and  _155
REMARK   69  A    between atoms: _155  and  _156
REMARK   70  A    between atoms: _159  and  _161
REMARK   71  A    between atoms: _161  and  _162
REMARK   72  A    between atoms: _164  and  _166
REMARK   73  A    between atoms: _166  and  _167
REMARK   74  A    between atoms: _169  and  _171
REMARK   75  A    between atoms: _171  and  _172
REMARK   76  A    between atoms: _171  and  _174
REMARK   77  A    between atoms: _174  and  _175
REMARK   78  A    between atoms: _181  and  _183
REMARK   79  A    between atoms: _183  and  _184
REMARK   80  A    between atoms: _183  and  _186
REMARK   81  A    between atoms: _186  and  _187
REMARK   82  A    between atoms: _190  and  _192
REMARK   83  A    between atoms: _192  and  _193
REMARK   84  A    between atoms: _192  and  _195
REMARK   85  A    between atoms: _198  and  _200
REMARK   86  A    between atoms: _200  and  _201
REMARK   87  A    between atoms: _200  and  _203
REMARK   88  A    between atoms: _203  and  _204
REMARK   89  A    between atoms: _207  and  _209
REMARK   90  A    between atoms: _209  and  _210
REMARK   91  A    between atoms: _209  and  _212
REMARK   92  A    between atoms: _212  and  _213
REMARK   93  A    between atoms: _217  and  _218
REMARK   94  A    between atoms: _223  and  _225
REMARK   95  A    between atoms: _225  and  _226
REMARK   96  A    between atoms: _225  and  _228
REMARK   97  A    between atoms: _231  and  _233
REMARK   98  A    between atoms: _233  and  _234
REMARK   99  A    between atoms: _233  and  _236
REMARK  100  A    between atoms: _236  and  _237
REMARK  101  A    between atoms: _242  and  _244
REMARK  102  A    between atoms: _244  and  _245
REMARK  103  A    between atoms: _244  and  _247
REMARK  104  A    between atoms: _247  and  _248
REMARK  105  A    between atoms: _251  and  _253
REMARK  106  A    between atoms: _253  and  _254
REMARK  107  A    between atoms: _253  and  _256
REMARK  108  A    between atoms: _256  and  _257
REMARK  109  A    between atoms: _260  and  _262
REMARK  110  A    between atoms: _262  and  _263
REMARK  111  A    between atoms: _265  and  _267
REMARK  112  A    between atoms: _267  and  _268
REMARK  113  A    between atoms: _267  and  _270
REMARK  114  A    between atoms: _270  and  _271
REMARK  115  A    between atoms: _271  and  _272
REMARK  116  A    between atoms: _272  and  _273
REMARK  117  A    between atoms: _282  and  _284
REMARK  118  A    between atoms: _284  and  _285
REMARK  119  A    between atoms: _284  and  _287
REMARK  120  A    between atoms: _287  and  _288
REMARK  121  A    between atoms: _293  and  _295
REMARK  122  A    between atoms: _295  and  _296
REMARK  123  A    between atoms: _295  and  _298
REMARK  124  A    between atoms: _298  and  _299
REMARK  125  A    between atoms: _299  and  _300
REMARK  126  A    between atoms: _300  and  _301
REMARK  127  A    between atoms: _310  and  _312
REMARK  128  A    between atoms: _312  and  _313
REMARK  129  A    between atoms: _312  and  _315
REMARK  130  A    between atoms: _315  and  _316
REMARK  131  A    between atoms: _319  and  _321
REMARK  132  A    between atoms: _321  and  _322
REMARK  133  A    between atoms: _321  and  _324
REMARK  134  A    between atoms: _324  and  _325
REMARK  135  A    between atoms: _328  and  _330
REMARK  136  A    between atoms: _330  and  _331
REMARK  137  A    between atoms: _330  and  _333
REMARK  138  A    between atoms: _333  and  _334
REMARK  139  A    between atoms: _337  and  _339
REMARK  140  A    between atoms: _339  and  _340
REMARK  141  A    between atoms: _339  and  _342
REMARK  142  A    between atoms: _342  and  _343
REMARK  143  A    between atoms: _346  and  _348
REMARK  144  A    between atoms: _348  and  _349
REMARK  145  A    between atoms: _348  and  _351
REMARK  146  A    between atoms: _351  and  _352
REMARK  147  A    between atoms: _355  and  _357
REMARK  148  A    between atoms: _357  and  _358
REMARK  149  A    between atoms: _360  and  _362
REMARK  150  A    between atoms: _362  and  _363
REMARK  151  A    between atoms: _366  and  _368
REMARK  152  A    between atoms: _368  and  _369
REMARK  153  A    between atoms: _368  and  _371
REMARK  154  A    between atoms: _371  and  _372
REMARK  155  A    between atoms: _375  and  _377
REMARK  156  A    between atoms: _377  and  _378
REMARK  157  A    between atoms: _377  and  _380
REMARK  158  A    between atoms: _380  and  _381
REMARK  159  A    between atoms: _384  and  _386
REMARK  160  A    between atoms: _386  and  _387
REMARK  161  A    between atoms: _386  and  _389
REMARK  162  A    between atoms: _389  and  _390
REMARK  163  A    between atoms: _393  and  _395
REMARK  164  A    between atoms: _395  and  _396
REMARK  165  A    between atoms: _395  and  _398
REMARK  166  A    between atoms: _401  and  _403
REMARK  167  A    between atoms: _403  and  _404
REMARK  168  A    between atoms: _403  and  _406
REMARK  169  A    between atoms: _406  and  _407
REMARK  170  A    between atoms: _407  and  _408
REMARK  171  A    between atoms: _408  and  _409
REMARK  172  A    between atoms: _409  and  _410
REMARK  173  A    between atoms: _414  and  _416
REMARK  174  A    between atoms: _416  and  _417
REMARK  175  A    between atoms: _416  and  _419
REMARK  176  A    between atoms: _419  and  _420
REMARK  177  A    between atoms: _420  and  _421
REMARK  178  A    between atoms: _423  and  _425
REMARK  179  A    between atoms: _425  and  _426
REMARK  180  A    between atoms: _425  and  _428
REMARK  181  A    between atoms: _428  and  _429
REMARK  182  A    between atoms: _432  and  _434
REMARK  183  A    between atoms: _434  and  _435
REMARK  184  A    between atoms: _437  and  _439
REMARK  185  A    between atoms: _439  and  _440
REMARK  186  A    between atoms: _442  and  _444
REMARK  187  A    between atoms: _444  and  _445
REMARK  188  A    between atoms: _444  and  _447
REMARK  189  A    between atoms: _447  and  _448
REMARK  190  A    between atoms: _451  and  _453
REMARK  191  A    between atoms: _453  and  _454
REMARK  192  A    between atoms: _456  and  _458
REMARK  193  A    between atoms: _458  and  _459
REMARK  194  A    between atoms: _461  and  _463
REMARK  195  A    between atoms: _463  and  _464
REMARK  196  A    between atoms: _463  and  _466
REMARK  197  A    between atoms: _466  and  _467
REMARK  198  A    between atoms: _473  and  _475
REMARK  199  A    between atoms: _475  and  _476
REMARK  200  A    between atoms: _475  and  _478
REMARK  201  A    between atoms: _478  and  _479
REMARK  202  A    between atoms: _482  and  _484
REMARK  203  A    between atoms: _484  and  _485
REMARK  204  A    between atoms: _484  and  _487
REMARK  205  A    between atoms: _490  and  _492
REMARK  206  A    between atoms: _492  and  _493
REMARK  207  A    between atoms: _492  and  _495
REMARK  208  A    between atoms: _495  and  _496
REMARK  209  A    between atoms: _499  and  _501
REMARK  210  A    between atoms: _501  and  _502
REMARK  211  A    between atoms: _501  and  _504
REMARK  212  A    between atoms: _504  and  _505
REMARK  213  A    between atoms: _509  and  _510
REMARK  214  A    between atoms: _515  and  _517
REMARK  215  A    between atoms: _517  and  _518
REMARK  216  A    between atoms: _517  and  _520
REMARK  217  A    between atoms: _523  and  _525
REMARK  218  A    between atoms: _525  and  _526
REMARK  219  A    between atoms: _525  and  _528
REMARK  220  A    between atoms: _528  and  _529
REMARK  221  A    between atoms: _534  and  _536
REMARK  222  A    between atoms: _536  and  _537
REMARK  223  A    between atoms: _536  and  _539
REMARK  224  A    between atoms: _539  and  _540
REMARK  225  A    between atoms: _543  and  _545
REMARK  226  A    between atoms: _545  and  _546
REMARK  227  A    between atoms: _545  and  _548
REMARK  228  A    between atoms: _548  and  _549
REMARK  229  A    between atoms: _552  and  _554
REMARK  230  A    between atoms: _554  and  _555
REMARK  231  A    between atoms: _557  and  _559
REMARK  232  A    between atoms: _559  and  _560
REMARK  233  A    between atoms: _559  and  _562
REMARK  234  A    between atoms: _562  and  _563
REMARK  235  A    between atoms: _563  and  _564
REMARK  236  A    between atoms: _564  and  _565
REMARK  237  A    between atoms: _574  and  _576
REMARK  238  A    between atoms: _576  and  _577
REMARK  239  A    between atoms: _576  and  _579
REMARK  240  A    between atoms: _579  and  _580
REMARK                            x       y       z     vdW  Elec       q    Type
REMARK                         _______ _______ _______ _____ _____    ______ ____
ROOT
ATOM      1  NE  ARG A   1      23.043  29.930  22.680  0.00  0.00    -0.265 N 
ATOM      2  CZ  ARG A   1      24.297  30.174  22.307  0.00  0.00    +0.342 C 
ATOM      3  NH2 ARG A   1      25.086  30.940  23.053  0.00  0.00    -0.292 N 
ATOM      4 HH21 ARG A   1      24.725  31.354  23.936  0.00  0.00    +0.255 HD
ATOM      5 HH22 ARG A   1      26.065  31.125  22.754  0.00  0.00    +0.255 HD
ATOM      6  NH1 ARG A   1      24.765  29.646  21.181  0.00  0.00    -0.292 N 
ATOM      7 HH11 ARG A   1      25.744  29.834  20.886  0.00  0.00    +0.255 HD
ATOM      8 HH12 ARG A   1      24.152  29.044  20.595  0.00  0.00    +0.255 HD
ATOM      9  HE  ARG A   1      22.466  29.322  22.064  0.00  0.00    +0.259 HD
ENDROOT
BRANCH   1  10
ATOM     10  CD  ARG A   1      22.418  30.455  23.892  0.00  0.00    +0.174 C 
BRANCH  10  11
ATOM     11  CG  ARG A   1      21.294  31.415  23.572  0.00  0.00    +0.045 C 
BRANCH  11  12
ATOM     12  CB  ARG A   1      20.554  31.800  24.824  0.00  0.00    +0.029 C 
BRANCH  12  13
ATOM     13  CA  ARG A   1      19.580  32.960  24.640  0.00  0.00    +0.133 C 
BRANCH  13  14
ATOM     14  N   ARG A   1      20.297  34.224  24.455  0.00  0.00    -0.239 NA
ATOM     15  H   ARG A   1      21.336  34.231  24.488  0.00  0.00    +0.142 HD
ENDBRANCH  13  14
BRANCH  13  16
ATOM     16  C   ARG A   1      18.646  33.048  25.839  0.00  0.00    +0.224 C 
ATOM     17  O   ARG A   1      19.045  33.548  26.891  0.00  0.00    -0.287 OA
ENDBRANCH  13  16
ENDBRANCH  12  13
ENDBRANCH  11  12
ENDBRANCH  10  11
ENDBRANCH   1  10
TORSDOF 6
REMARK  Name = ../refined-set-2016/3kdc/3kdc_pocket.pdb
REMARK  240 active torsions:
REMARK  status: ('A' for Active; 'I' for Inactive)
REMARK    1  A    between atoms: _1  and  _3
REMARK    2  A    between atoms: _3  and  _4
REMARK    3  A    between atoms: _3  and  _6
REMARK    4  A    between atoms: _6  and  _7
REMARK    5  A    between atoms: _7  and  _8
REMARK    6  A    between atoms: _8  and  _9
REMARK    7  A    between atoms: _18  and  _20
REMARK    8  A    between atoms: _20  and  _21
REMARK    9  A    between atoms: _20  and  _23
REMARK   10  A    between atoms: _23  and  _24
REMARK   11  A    between atoms: _27  and  _29
REMARK   12  A    between atoms: _29  and  _30
REMARK   13  A    between atoms: _29  and  _32
REMARK   14  A    between atoms: _32  and  _33
REMARK   15  A    between atoms: _36  and  _38
REMARK   16  A    between atoms: _38  and  _39
REMARK   17  A    between atoms: _38  and  _41
REMARK   18  A    between atoms: _41  and  _42
REMARK   19  A    between atoms: _45  and  _47
REMARK   20  A    between atoms: _47  and  _48
REMARK   21  A    between atoms: _47  and  _50
REMARK   22  A    between atoms: _50  and  _51
REMARK   23  A    between atoms: _54  and  _56
REMARK   24  A    between atoms: _56  and  _57
REMARK   25  A    between atoms: _59  and  _61
REMARK   26  A    between atoms: _61  and  _62
REMARK   27  A    between atoms: _65  and  _67
REMARK   28  A    between atoms: _67  and  _68
REMARK   29  A    between atoms: _67  and  _70
REMARK   30  A    between atoms: _70  and  _71
REMARK   31  A    between atoms: _74  and  _76
REMARK   32  A    between atoms: _76  and  _77
REMARK   33  A    between atoms: _76  and  _79
REMARK   34  A    between atoms: _79  and  _80
REMARK   35  A    between atoms: _83  and  _85
REMARK   36  A    between atoms: _85  and  _86
REMARK   37  A    between atoms: _85  and  _88
REMARK   38  A    between atoms: _88  and  _89
REMARK   39  A    between atoms: _92  and  _94
REMARK   40  A    between atoms: _94  and  _95
REMARK   41  A    between atoms: _94  and  _97
REMARK   42  A    between atoms: _100  and  _102
REMARK   43  A    between atoms: _102  and  _103
REMARK   44  A    between atoms: _102  and  _105
REMARK   45  A    between atoms: _105  and  _106
REMARK   46  A    between atoms: _109  and  _111
REMARK   47  A    between atoms: _111  and  _112
REMARK   48  A    between atoms: _111  and  _114
REMARK   49  A    between atoms: _114  and  _115
REMARK   50  A    between atoms: _115  and  _116
REMARK   51  A    between atoms: _116  and  _117
REMARK   52  A    between atoms: _117  and  _118
REMARK   53  A    between atoms: _122  and  _124
REMARK   54  A    between atoms: _124  and  _125
REMARK   55  A    between atoms: _124  and  _127
REMARK   56  A    between atoms: _127  and  _128
REMARK   57  A    between atoms: _128  and  _129
REMARK   58  A    between atoms: _131  and  _133
REMARK   59  A    between atoms: _133  and  _134
REMARK   60  A    between atoms: _133  and  _136
REMARK   61  A    between atoms: _136  and  _137
REMARK   62  A    between atoms: _140  and  _142
REMARK   63  A    between atoms: _142  and  _143
REMARK   64  A    between atoms: _145  and  _147
REMARK   65  A    between atoms: _147  and  _148
REMARK   66  A    between atoms: _150  and  _152
REMARK   67  A    between atoms: _152  and  _153
REMARK   68  A    between atoms: _152  and  _155
REMARK   69  A    between atoms: _155  and  _156
REMARK   70  A    between atoms: _159  and  _161
REMARK   71  A    between atoms: _161  and  _162
REMARK   72  A    between atoms: _164  and  _166
REMARK   73  A    between atoms: _166  and  _167
REMARK   74  A    between atoms: _169  and  _171
REMARK   75  A    between atoms: _171  and  _172
REMARK   76  A    between atoms: _171  and  _174
REMARK   77  A    between atoms: _174  and  _175
REMARK   78  A    between atoms: _181  and  _183
REMARK   79  A    between atoms: _183  and  _184
REMARK   80  A    between atoms: _183  and  _186
REMARK   81  A    between atoms: _186  and  _187
REMARK   82  A    between atoms: _190  and  _192
REMARK   83  A    between atoms: _192  and  _193
REMARK   84  A    between atoms: _192  and  _195
REMARK   85  A    between atoms: _198  and  _200
REMARK   86  A    between atoms: _200  and  _201
REMARK   87  A    between atoms: _200  and  _203
REMARK   88  A    between atoms: _203  and  _204
REMARK   89  A    between atoms: _207  and  _209
REMARK   90  A    between atoms: _209  and  _210
REMARK   91  A    between atoms: _209  and  _212
REMARK   92  A    between atoms: _212  and  _213
REMARK   93  A    between atoms: _217  and  _218
REMARK   94  A    between atoms: _223  and  _225
REMARK   95  A    between atoms: _225  and  _226
REMARK   96  A    between atoms: _225  and  _228
REMARK   97  A    between atoms: _231  and  _233
REMARK   98  A    between atoms: _233  and  _234
REMARK   99  A    between atoms: _233  and  _236
REMARK  100  A    between atoms: _236  and  _237
REMARK  101  A    between atoms: _242  and  _244
REMARK  102  A    between atoms: _244  and  _245
REMARK  103  A    between atoms: _244  and  _247
REMARK  104  A    between atoms: _247  and  _248
REMARK  105  A    between atoms: _251  and  _253
REMARK  106  A    between atoms: _253  and  _254
REMARK  107  A    between atoms: _253  and  _256
REMARK  108  A    between atoms: _256  and  _257
REMARK  109  A    between atoms: _260  and  _262
REMARK  110  A    between atoms: _262  and  _263
REMARK  111  A    between atoms: _265  and  _267
REMARK  112  A    between atoms: _267  and  _268
REMARK  113  A    between atoms: _267  and  _270
REMARK  114  A    between atoms: _270  and  _271
REMARK  115  A    between atoms: _271  and  _272
REMARK  116  A    between atoms: _272  and  _273
REMARK  117  A    between atoms: _282  and  _284
REMARK  118  A    between atoms: _284  and  _285
REMARK  119  A    between atoms: _284  and  _287
REMARK  120  A    between atoms: _287  and  _288
REMARK  121  A    between atoms: _293  and  _295
REMARK  122  A    between atoms: _295  and  _296
REMARK  123  A    between atoms: _295  and  _298
REMARK  124  A    between atoms: _298  and  _299
REMARK  125  A    between atoms: _299  and  _300
REMARK  126  A    between atoms: _300  and  _301
REMARK  127  A    between atoms: _310  and  _312
REMARK  128  A    between atoms: _312  and  _313
REMARK  129  A    between atoms: _312  and  _315
REMARK  130  A    between atoms: _315  and  _316
REMARK  131  A    between atoms: _319  and  _321
REMARK  132  A    between atoms: _321  and  _322
REMARK  133  A    between atoms: _321  and  _324
REMARK  134  A    between atoms: _324  and  _325
REMARK  135  A    between atoms: _328  and  _330
REMARK  136  A    between atoms: _330  and  _331
REMARK  137  A    between atoms: _330  and  _333
REMARK  138  A    between atoms: _333  and  _334
REMARK  139  A    between atoms: _337  and  _339
REMARK  140  A    between atoms: _339  and  _340
REMARK  141  A    between atoms: _339  and  _342
REMARK  142  A    between atoms: _342  and  _343
REMARK  143  A    between atoms: _346  and  _348
REMARK  144  A    between atoms: _348  and  _349
REMARK  145  A    between atoms: _348  and  _351
REMARK  146  A    between atoms: _351  and  _352
REMARK  147  A    between atoms: _355  and  _357
REMARK  148  A    between atoms: _357  and  _358
REMARK  149  A    between atoms: _360  and  _362
REMARK  150  A    between atoms: _362  and  _363
REMARK  151  A    between atoms: _366  and  _368
REMARK  152  A    between atoms: _368  and  _369
REMARK  153  A    between atoms: _368  and  _371
REMARK  154  A    between atoms: _371  and  _372
REMARK  155  A    between atoms: _375  and  _377
REMARK  156  A    between atoms: _377  and  _378
REMARK  157  A    between atoms: _377  and  _380
REMARK  158  A    between atoms: _380  and  _381
REMARK  159  A    between atoms: _384  and  _386
REMARK  160  A    between atoms: _386  and  _387
REMARK  161  A    between atoms: _386  and  _389
REMARK  162  A    between atoms: _389  and  _390
REMARK  163  A    between atoms: _393  and  _395
REMARK  164  A    between atoms: _395  and  _396
REMARK  165  A    between atoms: _395  and  _398
REMARK  166  A    between atoms: _401  and  _403
REMARK  167  A    between atoms: _403  and  _404
REMARK  168  A    between atoms: _403  and  _406
REMARK  169  A    between atoms: _406  and  _407
REMARK  170  A    between atoms: _407  and  _408
REMARK  171  A    between atoms: _408  and  _409
REMARK  172  A    between atoms: _409  and  _410
REMARK  173  A    between atoms: _414  and  _416
REMARK  174  A    between atoms: _416  and  _417
REMARK  175  A    between atoms: _416  and  _419
REMARK  176  A    between atoms: _419  and  _420
REMARK  177  A    between atoms: _420  and  _421
REMARK  178  A    between atoms: _423  and  _425
REMARK  179  A    between atoms: _425  and  _426
REMARK  180  A    between atoms: _425  and  _428
REMARK  181  A    between atoms: _428  and  _429
REMARK  182  A    between atoms: _432  and  _434
REMARK  183  A    between atoms: _434  and  _435
REMARK  184  A    between atoms: _437  and  _439
REMARK  185  A    between atoms: _439  and  _440
REMARK  186  A    between atoms: _442  and  _444
REMARK  187  A    between atoms: _444  and  _445
REMARK  188  A    between atoms: _444  and  _447
REMARK  189  A    between atoms: _447  and  _448
REMARK  190  A    between atoms: _451  and  _453
REMARK  191  A    between atoms: _453  and  _454
REMARK  192  A    between atoms: _456  and  _458
REMARK  193  A    between atoms: _458  and  _459
REMARK  194  A    between atoms: _461  and  _463
REMARK  195  A    between atoms: _463  and  _464
REMARK  196  A    between atoms: _463  and  _466
REMARK  197  A    between atoms: _466  and  _467
REMARK  198  A    between atoms: _473  and  _475
REMARK  199  A    between atoms: _475  and  _476
REMARK  200  A    between atoms: _475  and  _478
REMARK  201  A    between atoms: _478  and  _479
REMARK  202  A    between atoms: _482  and  _484
REMARK  203  A    between atoms: _484  and  _485
REMARK  204  A    between atoms: _484  and  _487
REMARK  205  A    between atoms: _490  and  _492
REMARK  206  A    between atoms: _492  and  _493
REMARK  207  A    between atoms: _492  and  _495
REMARK  208  A    between atoms: _495  and  _496
REMARK  209  A    between atoms: _499  and  _501
REMARK  210  A    between atoms: _501  and  _502
REMARK  211  A    between atoms: _501  and  _504
REMARK  212  A    between atoms: _504  and  _505
REMARK  213  A    between atoms: _509  and  _510
REMARK  214  A    between atoms: _515  and  _517
REMARK  215  A    between atoms: _517  and  _518
REMARK  216  A    between atoms: _517  and  _520
REMARK  217  A    between atoms: _523  and  _525
REMARK  218  A    between atoms: _525  and  _526
REMARK  219  A    between atoms: _525  and  _528
REMARK  220  A    between atoms: _528  and  _529
REMARK  221  A    between atoms: _534  and  _536
REMARK  222  A    between atoms: _536  and  _537
REMARK  223  A    between atoms: _536  and  _539
REMARK  224  A    between atoms: _539  and  _540
REMARK  225  A    between atoms: _543  and  _545
REMARK  226  A    between atoms: _545  and  _546
REMARK  227  A    between atoms: _545  and  _548
REMARK  228  A    between atoms: _548  and  _549
REMARK  229  A    between atoms: _552  and  _554
REMARK  230  A    between atoms: _554  and  _555
REMARK  231  A    between atoms: _557  and  _559
REMARK  232  A    between atoms: _559  and  _560
REMARK  233  A    between atoms: _559  and  _562
REMARK  234  A    between atoms: _562  and  _563
REMARK  235  A    between atoms: _563  and  _564
REMARK  236  A    between atoms: _564  and  _565
REMARK  237  A    between atoms: _574  and  _576
REMARK  238  A    between atoms: _576  and  _577
REMARK  239  A    between atoms: _576  and  _579
REMARK  240  A    between atoms: _579  and  _580
REMARK                            x       y       z     vdW  Elec       q    Type
REMARK                         _______ _______ _______ _____ _____    ______ ____
ROOT
ATOM      1  CA  LEU A   1      18.366  30.544  29.423  0.00  0.00    +0.133 C 
ENDROOT
BRANCH   1   2
ATOM      2  N   LEU A   1      17.896  31.549  28.471  0.00  0.00    -0.239 NA
ATOM      3  H   LEU A   1      18.474  32.402  28.329  0.00  0.00    +0.142 HD
ENDBRANCH   1   2
BRANCH   1   4
ATOM      4  C   LEU A   1      17.816  30.823  30.812  0.00  0.00    +0.224 C 
ATOM      5  O   LEU A   1      17.903  31.946  31.304  0.00  0.00    -0.287 OA
ENDBRANCH   1   4
BRANCH   1   6
ATOM      6  CB  LEU A   1      19.898  30.537  29.491  0.00  0.00    +0.025 C 
BRANCH   6   7
ATOM      7  CG  LEU A   1      20.727  30.126  28.273  0.00  0.00    +0.002 C 
ATOM      8  CD2 LEU A   1      22.178  30.540  28.482  0.00  0.00    +0.000 C 
ATOM      9  CD1 LEU A   1      20.624  28.628  28.006  0.00  0.00    +0.000 C 
ENDBRANCH   6   7
ENDBRANCH   1   6
TORSDOF 4
REMARK  Name = ../refined-set-2016/3kdc/3kdc_pocket.pdb
REMARK  240 active torsions:
REMARK  status: ('A' for Active; 'I' for Inactive)
REMARK    1  A    between atoms: _1  and  _3
REMARK    2  A    between atoms: _3  and  _4
REMARK    3  A    between atoms: _3  and  _6
REMARK    4  A    between atoms: _6  and  _7
REMARK    5  A    between atoms: _7  and  _8
REMARK    6  A    between atoms: _8  and  _9
REMARK    7  A    between atoms: _18  and  _20
REMARK    8  A    between atoms: _20  and  _21
REMARK    9  A    between atoms: _20  and  _23
REMARK   10  A    between atoms: _23  and  _24
REMARK   11  A    between atoms: _27  and  _29
REMARK   12  A    between atoms: _29  and  _30
REMARK   13  A    between atoms: _29  and  _32
REMARK   14  A    between atoms: _32  and  _33
REMARK   15  A    between atoms: _36  and  _38
REMARK   16  A    between atoms: _38  and  _39
REMARK   17  A    between atoms: _38  and  _41
REMARK   18  A    between atoms: _41  and  _42
REMARK   19  A    between atoms: _45  and  _47
REMARK   20  A    between atoms: _47  and  _48
REMARK   21  A    between atoms: _47  and  _50
REMARK   22  A    between atoms: _50  and  _51
REMARK   23  A    between atoms: _54  and  _56
REMARK   24  A    between atoms: _56  and  _57
REMARK   25  A    between atoms: _59  and  _61
REMARK   26  A    between atoms: _61  and  _62
REMARK   27  A    between atoms: _65  and  _67
REMARK   28  A    between atoms: _67  and  _68
REMARK   29  A    between atoms: _67  and  _70
REMARK   30  A    between atoms: _70  and  _71
REMARK   31  A    between atoms: _74  and  _76
REMARK   32  A    between atoms: _76  and  _77
REMARK   33  A    between atoms: _76  and  _79
REMARK   34  A    between atoms: _79  and  _80
REMARK   35  A    between atoms: _83  and  _85
REMARK   36  A    between atoms: _85  and  _86
REMARK   37  A    between atoms: _85  and  _88
REMARK   38  A    between atoms: _88  and  _89
REMARK   39  A    between atoms: _92  and  _94
REMARK   40  A    between atoms: _94  and  _95
REMARK   41  A    between atoms: _94  and  _97
REMARK   42  A    between atoms: _100  and  _102
REMARK   43  A    between atoms: _102  and  _103
REMARK   44  A    between atoms: _102  and  _105
REMARK   45  A    between atoms: _105  and  _106
REMARK   46  A    between atoms: _109  and  _111
REMARK   47  A    between atoms: _111  and  _112
REMARK   48  A    between atoms: _111  and  _114
REMARK   49  A    between atoms: _114  and  _115
REMARK   50  A    between atoms: _115  and  _116
REMARK   51  A    between atoms: _116  and  _117
REMARK   52  A    between atoms: _117  and  _118
REMARK   53  A    between atoms: _122  and  _124
REMARK   54  A    between atoms: _124  and  _125
REMARK   55  A    between atoms: _124  and  _127
REMARK   56  A    between atoms: _127  and  _128
REMARK   57  A    between atoms: _128  and  _129
REMARK   58  A    between atoms: _131  and  _133
REMARK   59  A    between atoms: _133  and  _134
REMARK   60  A    between atoms: _133  and  _136
REMARK   61  A    between atoms: _136  and  _137
REMARK   62  A    between atoms: _140  and  _142
REMARK   63  A    between atoms: _142  and  _143
REMARK   64  A    between atoms: _145  and  _147
REMARK   65  A    between atoms: _147  and  _148
REMARK   66  A    between atoms: _150  and  _152
REMARK   67  A    between atoms: _152  and  _153
REMARK   68  A    between atoms: _152  and  _155
REMARK   69  A    between atoms: _155  and  _156
REMARK   70  A    between atoms: _159  and  _161
REMARK   71  A    between atoms: _161  and  _162
REMARK   72  A    between atoms: _164  and  _166
REMARK   73  A    between atoms: _166  and  _167
REMARK   74  A    between atoms: _169  and  _171
REMARK   75  A    between atoms: _171  and  _172
REMARK   76  A    between atoms: _171  and  _174
REMARK   77  A    between atoms: _174  and  _175
REMARK   78  A    between atoms: _181  and  _183
REMARK   79  A    between atoms: _183  and  _184
REMARK   80  A    between atoms: _183  and  _186
REMARK   81  A    between atoms: _186  and  _187
REMARK   82  A    between atoms: _190  and  _192
REMARK   83  A    between atoms: _192  and  _193
REMARK   84  A    between atoms: _192  and  _195
REMARK   85  A    between atoms: _198  and  _200
REMARK   86  A    between atoms: _200  and  _201
REMARK   87  A    between atoms: _200  and  _203
REMARK   88  A    between atoms: _203  and  _204
REMARK   89  A    between atoms: _207  and  _209
REMARK   90  A    between atoms: _209  and  _210
REMARK   91  A    between atoms: _209  and  _212
REMARK   92  A    between atoms: _212  and  _213
REMARK   93  A    between atoms: _217  and  _218
REMARK   94  A    between atoms: _223  and  _225
REMARK   95  A    between atoms: _225  and  _226
REMARK   96  A    between atoms: _225  and  _228
REMARK   97  A    between atoms: _231  and  _233
REMARK   98  A    between atoms: _233  and  _234
REMARK   99  A    between atoms: _233  and  _236
REMARK  100  A    between atoms: _236  and  _237
REMARK  101  A    between atoms: _242  and  _244
REMARK  102  A    between atoms: _244  and  _245
REMARK  103  A    between atoms: _244  and  _247
REMARK  104  A    between atoms: _247  and  _248
REMARK  105  A    between atoms: _251  and  _253
REMARK  106  A    between atoms: _253  and  _254
REMARK  107  A    between atoms: _253  and  _256
REMARK  108  A    between atoms: _256  and  _257
REMARK  109  A    between atoms: _260  and  _262
REMARK  110  A    between atoms: _262  and  _263
REMARK  111  A    between atoms: _265  and  _267
REMARK  112  A    between atoms: _267  and  _268
REMARK  113  A    between atoms: _267  and  _270
REMARK  114  A    between atoms: _270  and  _271
REMARK  115  A    between atoms: _271  and  _272
REMARK  116  A    between atoms: _272  and  _273
REMARK  117  A    between atoms: _282  and  _284
REMARK  118  A    between atoms: _284  and  _285
REMARK  119  A    between atoms: _284  and  _287
REMARK  120  A    between atoms: _287  and  _288
REMARK  121  A    between atoms: _293  and  _295
REMARK  122  A    between atoms: _295  and  _296
REMARK  123  A    between atoms: _295  and  _298
REMARK  124  A    between atoms: _298  and  _299
REMARK  125  A    between atoms: _299  and  _300
REMARK  126  A    between atoms: _300  and  _301
REMARK  127  A    between atoms: _310  and  _312
REMARK  128  A    between atoms: _312  and  _313
REMARK  129  A    between atoms: _312  and  _315
REMARK  130  A    between atoms: _315  and  _316
REMARK  131  A    between atoms: _319  and  _321
REMARK  132  A    between atoms: _321  and  _322
REMARK  133  A    between atoms: _321  and  _324
REMARK  134  A    between atoms: _324  and  _325
REMARK  135  A    between atoms: _328  and  _330
REMARK  136  A    between atoms: _330  and  _331
REMARK  137  A    between atoms: _330  and  _333
REMARK  138  A    between atoms: _333  and  _334
REMARK  139  A    between atoms: _337  and  _339
REMARK  140  A    between atoms: _339  and  _340
REMARK  141  A    between atoms: _339  and  _342
REMARK  142  A    between atoms: _342  and  _343
REMARK  143  A    between atoms: _346  and  _348
REMARK  144  A    between atoms: _348  and  _349
REMARK  145  A    between atoms: _348  and  _351
REMARK  146  A    between atoms: _351  and  _352
REMARK  147  A    between atoms: _355  and  _357
REMARK  148  A    between atoms: _357  and  _358
REMARK  149  A    between atoms: _360  and  _362
REMARK  150  A    between atoms: _362  and  _363
REMARK  151  A    between atoms: _366  and  _368
REMARK  152  A    between atoms: _368  and  _369
REMARK  153  A    between atoms: _368  and  _371
REMARK  154  A    between atoms: _371  and  _372
REMARK  155  A    between atoms: _375  and  _377
REMARK  156  A    between atoms: _377  and  _378
REMARK  157  A    between atoms: _377  and  _380
REMARK  158  A    between atoms: _380  and  _381
REMARK  159  A    between atoms: _384  and  _386
REMARK  160  A    between atoms: _386  and  _387
REMARK  161  A    between atoms: _386  and  _389
REMARK  162  A    between atoms: _389  and  _390
REMARK  163  A    between atoms: _393  and  _395
REMARK  164  A    between atoms: _395  and  _396
REMARK  165  A    between atoms: _395  and  _398
REMARK  166  A    between atoms: _401  and  _403
REMARK  167  A    between atoms: _403  and  _404
REMARK  168  A    between atoms: _403  and  _406
REMARK  169  A    between atoms: _406  and  _407
REMARK  170  A    between atoms: _407  and  _408
REMARK  171  A    between atoms: _408  and  _409
REMARK  172  A    between atoms: _409  and  _410
REMARK  173  A    between atoms: _414  and  _416
REMARK  174  A    between atoms: _416  and  _417
REMARK  175  A    between atoms: _416  and  _419
REMARK  176  A    between atoms: _419  and  _420
REMARK  177  A    between atoms: _420  and  _421
REMARK  178  A    between atoms: _423  and  _425
REMARK  179  A    between atoms: _425  and  _426
REMARK  180  A    between atoms: _425  and  _428
REMARK  181  A    between atoms: _428  and  _429
REMARK  182  A    between atoms: _432  and  _434
REMARK  183  A    between atoms: _434  and  _435
REMARK  184  A    between atoms: _437  and  _439
REMARK  185  A    between atoms: _439  and  _440
REMARK  186  A    between atoms: _442  and  _444
REMARK  187  A    between atoms: _444  and  _445
REMARK  188  A    between atoms: _444  and  _447
REMARK  189  A    between atoms: _447  and  _448
REMARK  190  A    between atoms: _451  and  _453
REMARK  191  A    between atoms: _453  and  _454
REMARK  192  A    between atoms: _456  and  _458
REMARK  193  A    between atoms: _458  and  _459
REMARK  194  A    between atoms: _461  and  _463
REMARK  195  A    between atoms: _463  and  _464
REMARK  196  A    between atoms: _463  and  _466
REMARK  197  A    between atoms: _466  and  _467
REMARK  198  A    between atoms: _473  and  _475
REMARK  199  A    between atoms: _475  and  _476
REMARK  200  A    between atoms: _475  and  _478
REMARK  201  A    between atoms: _478  and  _479
REMARK  202  A    between atoms: _482  and  _484
REMARK  203  A    between atoms: _484  and  _485
REMARK  204  A    between atoms: _484  and  _487
REMARK  205  A    between atoms: _490  and  _492
REMARK  206  A    between atoms: _492  and  _493
REMARK  207  A    between atoms: _492  and  _495
REMARK  208  A    between atoms: _495  and  _496
REMARK  209  A    between atoms: _499  and  _501
REMARK  210  A    between atoms: _501  and  _502
REMARK  211  A    between atoms: _501  and  _504
REMARK  212  A    between atoms: _504  and  _505
REMARK  213  A    between atoms: _509  and  _510
REMARK  214  A    between atoms: _515  and  _517
REMARK  215  A    between atoms: _517  and  _518
REMARK  216  A    between atoms: _517  and  _520
REMARK  217  A    between atoms: _523  and  _525
REMARK  218  A    between atoms: _525  and  _526
REMARK  219  A    between atoms: _525  and  _528
REMARK  220  A    between atoms: _528  and  _529
REMARK  221  A    between atoms: _534  and  _536
REMARK  222  A    between atoms: _536  and  _537
REMARK  223  A    between atoms: _536  and  _539
REMARK  224  A    between atoms: _539  and  _540
REMARK  225  A    between atoms: _543  and  _545
REMARK  226  A    between atoms: _545  and  _546
REMARK  227  A    between atoms: _545  and  _548
REMARK  228  A    between atoms: _548  and  _549
REMARK  229  A    between atoms: _552  and  _554
REMARK  230  A    between atoms: _554  and  _555
REMARK  231  A    between atoms: _557  and  _559
REMARK  232  A    between atoms: _559  and  _560
REMARK  233  A    between atoms: _559  and  _562
REMARK  234  A    between atoms: _562  and  _563
REMARK  235  A    between atoms: _563  and  _564
REMARK  236  A    between atoms: _564  and  _565
REMARK  237  A    between atoms: _574  and  _576
REMARK  238  A    between atoms: _576  and  _577
REMARK  239  A    between atoms: _576  and  _579
REMARK  240  A    between atoms: _579  and  _580
REMARK                            x       y       z     vdW  Elec       q    Type
REMARK                         _______ _______ _______ _____ _____    ______ ____
ROOT
ATOM      1  C   GLY A   5      10.953  23.522  18.759  0.00  0.00    +0.243 C 
ATOM      2  N   ALA A   6      11.034  23.235  20.056  0.00  0.00    -0.297 N 
ATOM      3  H   ALA A   6      11.091  24.015  20.741  0.00  0.00    +0.150 HD
ATOM      4  O   GLY A   5      10.928  22.654  17.886  0.00  0.00    -0.273 OA
ENDROOT
BRANCH   2   5
ATOM      5  CA  ALA A   6      11.046  21.861  20.548  0.00  0.00    +0.149 C 
ATOM      6  CB  ALA A   6      12.044  21.724  21.685  0.00  0.00    +0.031 C 
BRANCH   5   7
ATOM      7  C   ALA A   6       9.650  21.454  21.017  0.00  0.00    +0.241 C 
ATOM      8  O   ALA A   6       9.052  22.142  21.845  0.00  0.00    -0.273 OA
ATOM      9  N   ASP A   7       9.138  20.342  20.485  0.00  0.00    -0.297 N 
ATOM     10  H   ASP A   7       9.665  19.859  19.730  0.00  0.00    +0.150 HD
BRANCH   9  11
ATOM     11  CA  ASP A   7       7.856  19.775  20.928  0.00  0.00    +0.160 C 
BRANCH  11  12
ATOM     12  C   ASP A   7       7.951  19.291  22.379  0.00  0.00    +0.241 C 
ATOM     13  O   ASP A   7       6.995  19.393  23.150  0.00  0.00    -0.273 OA
ATOM     14  N   ASP A   8       9.114  18.751  22.729  0.00  0.00    -0.297 N 
ATOM     15  H   ASP A   8       9.912  18.813  22.065  0.00  0.00    +0.150 HD
BRANCH  14  16
ATOM     16  CA  ASP A   8       9.319  18.075  24.007  0.00  0.00    +0.160 C 
BRANCH  16  17
ATOM     17  C   ASP A   8      10.458  18.710  24.811  0.00  0.00    +0.241 C 
ATOM     18  N   THR A   9      10.600  18.259  26.052  0.00  0.00    -0.295 N 
ATOM     19  H   THR A   9       9.948  17.521  26.386  0.00  0.00    +0.150 HD
ATOM     20  O   ASP A   8      11.191  19.569  24.313  0.00  0.00    -0.273 OA
BRANCH  18  21
ATOM     21  CA  THR A   9      11.622  18.744  26.971  0.00  0.00    +0.176 C 
BRANCH  21  22
ATOM     22  C   THR A   9      12.740  17.703  27.060  0.00  0.00    +0.243 C 
ATOM     23  O   THR A   9      12.489  16.540  27.379  0.00  0.00    -0.273 OA
ATOM     24  N   VAL A  10      13.964  18.128  26.758  0.00  0.00    -0.298 N 
ATOM     25  H   VAL A  10      14.103  19.134  26.534  0.00  0.00    +0.150 HD
BRANCH  24  26
ATOM     26  CA  VAL A  10      15.122  17.233  26.729  0.00  0.00    +0.137 C 
BRANCH  26  27
ATOM     27  CB  VAL A  10      15.706  17.064  25.305  0.00  0.00    +0.026 C 
ATOM     28  CG2 VAL A  10      16.510  15.765  25.219  0.00  0.00    +0.002 C 
ATOM     29  CG1 VAL A  10      14.603  17.045  24.292  0.00  0.00    +0.002 C 
ENDBRANCH  26  27
BRANCH  26  30
ATOM     30  C   VAL A  10      16.229  17.736  27.642  0.00  0.00    +0.227 C 
ATOM     31  O   VAL A  10      16.647  18.899  27.568  0.00  0.00    -0.286 OA
ENDBRANCH  26  30
ENDBRANCH  24  26
ENDBRANCH  21  22
BRANCH  21  32
ATOM     32  CB  THR A   9      11.000  19.016  28.363  0.00  0.00    +0.137 C 
ATOM     33  CG2 THR A   9      12.069  19.247  29.440  0.00  0.00    +0.034 C 
BRANCH  32  34
ATOM     34  OG1 THR A   9      10.134  20.156  28.282  0.00  0.00    -0.382 OA
ATOM     35  HG1 THR A   9       9.414  19.976  27.627  0.00  0.00    +0.210 HD
ENDBRANCH  32  34
ENDBRANCH  21  32
ENDBRANCH  18  21
ENDBRANCH  16  17
BRANCH  16  36
ATOM     36  CB  ASP A   8       9.621  16.586  23.773  0.00  0.00    +0.143 C 
BRANCH  36  37
ATOM     37  CG  ASP A   8       8.548  15.882  22.954  0.00  0.00    +0.367 C 
ATOM     38  OD2 ASP A   8       7.342  16.111  23.197  0.00  0.00    -0.246 OA
ATOM     39  OD1 ASP A   8       8.909  15.077  22.070  0.00  0.00    -0.246 OA
ENDBRANCH  36  37
ENDBRANCH  16  36
ENDBRANCH  14  16
ENDBRANCH  11  12
BRANCH  11  40
ATOM     40  CB  ASP A   7       7.463  18.571  20.065  0.00  0.00    +0.143 C 
BRANCH  40  41
ATOM     41  CG  ASP A   7       7.086  18.938  18.637  0.00  0.00    +0.367 C 
ATOM     42  OD2 ASP A   7       7.192  20.112  18.221  0.00  0.00    -0.246 OA
ATOM     43  OD1 ASP A   7       6.658  18.011  17.920  0.00  0.00    -0.246 OA
ENDBRANCH  40  41
ENDBRANCH  11  40
ENDBRANCH   9  11
ENDBRANCH   5   7
ENDBRANCH   2   5
BRANCH   1  44
ATOM     44  CA  GLY A   5      10.912  24.998  18.389  0.00  0.00    +0.176 C 
BRANCH  44  47
ATOM     45  C   THR A   4       9.544  26.201  20.025  0.00  0.00    +0.243 C 
ATOM     46  O   THR A   4       8.489  25.757  19.558  0.00  0.00    -0.273 OA
ATOM     47  N   GLY A   5      10.740  25.920  19.512  0.00  0.00    -0.295 N 
ATOM     48  H   GLY A   5      11.581  26.372  19.924  0.00  0.00    +0.150 HD
BRANCH  45  49
ATOM     49  CA  THR A   4       9.524  27.112  21.254  0.00  0.00    +0.176 C 
BRANCH  49  52
ATOM     50  C   ASP A   3      11.388  26.240  22.579  0.00  0.00    +0.241 C 
ATOM     51  O   ASP A   3      10.874  25.121  22.677  0.00  0.00    -0.273 OA
ATOM     52  N   THR A   4      10.838  27.241  21.891  0.00  0.00    -0.295 N 
ATOM     53  H   THR A   4      11.356  28.139  21.804  0.00  0.00    +0.150 HD
BRANCH  50  54
ATOM     54  CA  ASP A   3      12.724  26.542  23.236  0.00  0.00    +0.160 C 
BRANCH  54  56
ATOM     55  C   LEU A   2      13.097  27.991  25.163  0.00  0.00    +0.241 C 
ATOM     56  N   ASP A   3      12.568  26.889  24.643  0.00  0.00    -0.297 N 
ATOM     57  H   ASP A   3      12.024  26.253  25.260  0.00  0.00    +0.150 HD
ATOM     58  O   LEU A   2      13.519  28.927  24.482  0.00  0.00    -0.273 OA
BRANCH  55  59
ATOM     59  CA  LEU A   2      13.162  28.040  26.682  0.00  0.00    +0.149 C 
BRANCH  59  61
ATOM     60  C   LEU A   1      15.266  26.858  27.020  0.00  0.00    +0.238 C 
ATOM     61  N   LEU A   2      14.571  27.994  27.076  0.00  0.00    -0.297 N 
ATOM     62  H   LEU A   2      15.038  28.863  27.405  0.00  0.00    +0.150 HD
ATOM     63  O   LEU A   1      14.753  25.765  26.770  0.00  0.00    -0.274 OA
BRANCH  60  64
ATOM     64  CA  LEU A   1      16.757  26.961  27.305  0.00  0.00    +0.145 C 
BRANCH  64  65
ATOM     65  N   LEU A   1      17.131  25.998  28.321  0.00  0.00    -0.238 NA
ATOM     66  H   LEU A   1      17.146  24.988  28.074  0.00  0.00    +0.142 HD
ENDBRANCH  64  65
BRANCH  64  67
ATOM     67  CB  LEU A   1      17.566  26.696  26.030  0.00  0.00    +0.026 C 
BRANCH  67  68
ATOM     68  CG  LEU A   1      17.488  27.635  24.824  0.00  0.00    +0.002 C 
ATOM     69  CD2 LEU A   1      18.199  28.935  25.107  0.00  0.00    +0.000 C 
ATOM     70  CD1 LEU A   1      18.139  26.957  23.654  0.00  0.00    +0.000 C 
ENDBRANCH  67  68
ENDBRANCH  64  67
ENDBRANCH  60  64
ENDBRANCH  59  61
BRANCH  59  71
ATOM     71  CB  LEU A   2      12.446  29.282  27.241  0.00  0.00    +0.029 C 
BRANCH  71  72
ATOM     72  CG  LEU A   2      12.468  29.550  28.756  0.00  0.00    +0.002 C 
ATOM     73  CD2 LEU A   2      11.998  28.353  29.585  0.00  0.00    +0.000 C 
ATOM     74  CD1 LEU A   2      11.626  30.772  29.079  0.00  0.00    +0.000 C 
ENDBRANCH  71  72
ENDBRANCH  59  71
ENDBRANCH  55  59
ENDBRANCH  54  56
BRANCH  54  75
ATOM     75  CB  ASP A   3      13.664  25.334  23.116  0.00  0.00    +0.143 C 
BRANCH  75  76
ATOM     76  CG  ASP A   3      14.058  25.022  21.680  0.00  0.00    +0.367 C 
ATOM     77  OD2 ASP A   3      15.010  24.235  21.516  0.00  0.00    -0.246 OA
ATOM     78  OD1 ASP A   3      13.437  25.543  20.723  0.00  0.00    -0.246 OA
ENDBRANCH  75  76
ENDBRANCH  54  75
ENDBRANCH  50  54
ENDBRANCH  49  52
BRANCH  49  79
ATOM     79  CB  THR A   4       8.952  28.484  20.863  0.00  0.00    +0.137 C 
ATOM     80  CG2 THR A   4       8.781  29.358  22.099  0.00  0.00    +0.034 C 
BRANCH  79  81
ATOM     81  OG1 THR A   4       9.841  29.128  19.941  0.00  0.00    -0.382 OA
ATOM     82  HG1 THR A   4       9.937  28.567  19.131  0.00  0.00    +0.210 HD
ENDBRANCH  79  81
ENDBRANCH  49  79
ENDBRANCH  45  49
ENDBRANCH  44  47
ENDBRANCH   1  44
TORSDOF 35
REMARK  Name = ../refined-set-2016/3kdc/3kdc_pocket.pdb
REMARK  240 active torsions:
REMARK  status: ('A' for Active; 'I' for Inactive)
REMARK    1  A    between atoms: _1  and  _3
REMARK    2  A    between atoms: _3  and  _4
REMARK    3  A    between atoms: _3  and  _6
REMARK    4  A    between atoms: _6  and  _7
REMARK    5  A    between atoms: _7  and  _8
REMARK    6  A    between atoms: _8  and  _9
REMARK    7  A    between atoms: _18  and  _20
REMARK    8  A    between atoms: _20  and  _21
REMARK    9  A    between atoms: _20  and  _23
REMARK   10  A    between atoms: _23  and  _24
REMARK   11  A    between atoms: _27  and  _29
REMARK   12  A    between atoms: _29  and  _30
REMARK   13  A    between atoms: _29  and  _32
REMARK   14  A    between atoms: _32  and  _33
REMARK   15  A    between atoms: _36  and  _38
REMARK   16  A    between atoms: _38  and  _39
REMARK   17  A    between atoms: _38  and  _41
REMARK   18  A    between atoms: _41  and  _42
REMARK   19  A    between atoms: _45  and  _47
REMARK   20  A    between atoms: _47  and  _48
REMARK   21  A    between atoms: _47  and  _50
REMARK   22  A    between atoms: _50  and  _51
REMARK   23  A    between atoms: _54  and  _56
REMARK   24  A    between atoms: _56  and  _57
REMARK   25  A    between atoms: _59  and  _61
REMARK   26  A    between atoms: _61  and  _62
REMARK   27  A    between atoms: _65  and  _67
REMARK   28  A    between atoms: _67  and  _68
REMARK   29  A    between atoms: _67  and  _70
REMARK   30  A    between atoms: _70  and  _71
REMARK   31  A    between atoms: _74  and  _76
REMARK   32  A    between atoms: _76  and  _77
REMARK   33  A    between atoms: _76  and  _79
REMARK   34  A    between atoms: _79  and  _80
REMARK   35  A    between atoms: _83  and  _85
REMARK   36  A    between atoms: _85  and  _86
REMARK   37  A    between atoms: _85  and  _88
REMARK   38  A    between atoms: _88  and  _89
REMARK   39  A    between atoms: _92  and  _94
REMARK   40  A    between atoms: _94  and  _95
REMARK   41  A    between atoms: _94  and  _97
REMARK   42  A    between atoms: _100  and  _102
REMARK   43  A    between atoms: _102  and  _103
REMARK   44  A    between atoms: _102  and  _105
REMARK   45  A    between atoms: _105  and  _106
REMARK   46  A    between atoms: _109  and  _111
REMARK   47  A    between atoms: _111  and  _112
REMARK   48  A    between atoms: _111  and  _114
REMARK   49  A    between atoms: _114  and  _115
REMARK   50  A    between atoms: _115  and  _116
REMARK   51  A    between atoms: _116  and  _117
REMARK   52  A    between atoms: _117  and  _118
REMARK   53  A    between atoms: _122  and  _124
REMARK   54  A    between atoms: _124  and  _125
REMARK   55  A    between atoms: _124  and  _127
REMARK   56  A    between atoms: _127  and  _128
REMARK   57  A    between atoms: _128  and  _129
REMARK   58  A    between atoms: _131  and  _133
REMARK   59  A    between atoms: _133  and  _134
REMARK   60  A    between atoms: _133  and  _136
REMARK   61  A    between atoms: _136  and  _137
REMARK   62  A    between atoms: _140  and  _142
REMARK   63  A    between atoms: _142  and  _143
REMARK   64  A    between atoms: _145  and  _147
REMARK   65  A    between atoms: _147  and  _148
REMARK   66  A    between atoms: _150  and  _152
REMARK   67  A    between atoms: _152  and  _153
REMARK   68  A    between atoms: _152  and  _155
REMARK   69  A    between atoms: _155  and  _156
REMARK   70  A    between atoms: _159  and  _161
REMARK   71  A    between atoms: _161  and  _162
REMARK   72  A    between atoms: _164  and  _166
REMARK   73  A    between atoms: _166  and  _167
REMARK   74  A    between atoms: _169  and  _171
REMARK   75  A    between atoms: _171  and  _172
REMARK   76  A    between atoms: _171  and  _174
REMARK   77  A    between atoms: _174  and  _175
REMARK   78  A    between atoms: _181  and  _183
REMARK   79  A    between atoms: _183  and  _184
REMARK   80  A    between atoms: _183  and  _186
REMARK   81  A    between atoms: _186  and  _187
REMARK   82  A    between atoms: _190  and  _192
REMARK   83  A    between atoms: _192  and  _193
REMARK   84  A    between atoms: _192  and  _195
REMARK   85  A    between atoms: _198  and  _200
REMARK   86  A    between atoms: _200  and  _201
REMARK   87  A    between atoms: _200  and  _203
REMARK   88  A    between atoms: _203  and  _204
REMARK   89  A    between atoms: _207  and  _209
REMARK   90  A    between atoms: _209  and  _210
REMARK   91  A    between atoms: _209  and  _212
REMARK   92  A    between atoms: _212  and  _213
REMARK   93  A    between atoms: _217  and  _218
REMARK   94  A    between atoms: _223  and  _225
REMARK   95  A    between atoms: _225  and  _226
REMARK   96  A    between atoms: _225  and  _228
REMARK   97  A    between atoms: _231  and  _233
REMARK   98  A    between atoms: _233  and  _234
REMARK   99  A    between atoms: _233  and  _236
REMARK  100  A    between atoms: _236  and  _237
REMARK  101  A    between atoms: _242  and  _244
REMARK  102  A    between atoms: _244  and  _245
REMARK  103  A    between atoms: _244  and  _247
REMARK  104  A    between atoms: _247  and  _248
REMARK  105  A    between atoms: _251  and  _253
REMARK  106  A    between atoms: _253  and  _254
REMARK  107  A    between atoms: _253  and  _256
REMARK  108  A    between atoms: _256  and  _257
REMARK  109  A    between atoms: _260  and  _262
REMARK  110  A    between atoms: _262  and  _263
REMARK  111  A    between atoms: _265  and  _267
REMARK  112  A    between atoms: _267  and  _268
REMARK  113  A    between atoms: _267  and  _270
REMARK  114  A    between atoms: _270  and  _271
REMARK  115  A    between atoms: _271  and  _272
REMARK  116  A    between atoms: _272  and  _273
REMARK  117  A    between atoms: _282  and  _284
REMARK  118  A    between atoms: _284  and  _285
REMARK  119  A    between atoms: _284  and  _287
REMARK  120  A    between atoms: _287  and  _288
REMARK  121  A    between atoms: _293  and  _295
REMARK  122  A    between atoms: _295  and  _296
REMARK  123  A    between atoms: _295  and  _298
REMARK  124  A    between atoms: _298  and  _299
REMARK  125  A    between atoms: _299  and  _300
REMARK  126  A    between atoms: _300  and  _301
REMARK  127  A    between atoms: _310  and  _312
REMARK  128  A    between atoms: _312  and  _313
REMARK  129  A    between atoms: _312  and  _315
REMARK  130  A    between atoms: _315  and  _316
REMARK  131  A    between atoms: _319  and  _321
REMARK  132  A    between atoms: _321  and  _322
REMARK  133  A    between atoms: _321  and  _324
REMARK  134  A    between atoms: _324  and  _325
REMARK  135  A    between atoms: _328  and  _330
REMARK  136  A    between atoms: _330  and  _331
REMARK  137  A    between atoms: _330  and  _333
REMARK  138  A    between atoms: _333  and  _334
REMARK  139  A    between atoms: _337  and  _339
REMARK  140  A    between atoms: _339  and  _340
REMARK  141  A    between atoms: _339  and  _342
REMARK  142  A    between atoms: _342  and  _343
REMARK  143  A    between atoms: _346  and  _348
REMARK  144  A    between atoms: _348  and  _349
REMARK  145  A    between atoms: _348  and  _351
REMARK  146  A    between atoms: _351  and  _352
REMARK  147  A    between atoms: _355  and  _357
REMARK  148  A    between atoms: _357  and  _358
REMARK  149  A    between atoms: _360  and  _362
REMARK  150  A    between atoms: _362  and  _363
REMARK  151  A    between atoms: _366  and  _368
REMARK  152  A    between atoms: _368  and  _369
REMARK  153  A    between atoms: _368  and  _371
REMARK  154  A    between atoms: _371  and  _372
REMARK  155  A    between atoms: _375  and  _377
REMARK  156  A    between atoms: _377  and  _378
REMARK  157  A    between atoms: _377  and  _380
REMARK  158  A    between atoms: _380  and  _381
REMARK  159  A    between atoms: _384  and  _386
REMARK  160  A    between atoms: _386  and  _387
REMARK  161  A    between atoms: _386  and  _389
REMARK  162  A    between atoms: _389  and  _390
REMARK  163  A    between atoms: _393  and  _395
REMARK  164  A    between atoms: _395  and  _396
REMARK  165  A    between atoms: _395  and  _398
REMARK  166  A    between atoms: _401  and  _403
REMARK  167  A    between atoms: _403  and  _404
REMARK  168  A    between atoms: _403  and  _406
REMARK  169  A    between atoms: _406  and  _407
REMARK  170  A    between atoms: _407  and  _408
REMARK  171  A    between atoms: _408  and  _409
REMARK  172  A    between atoms: _409  and  _410
REMARK  173  A    between atoms: _414  and  _416
REMARK  174  A    between atoms: _416  and  _417
REMARK  175  A    between atoms: _416  and  _419
REMARK  176  A    between atoms: _419  and  _420
REMARK  177  A    between atoms: _420  and  _421
REMARK  178  A    between atoms: _423  and  _425
REMARK  179  A    between atoms: _425  and  _426
REMARK  180  A    between atoms: _425  and  _428
REMARK  181  A    between atoms: _428  and  _429
REMARK  182  A    between atoms: _432  and  _434
REMARK  183  A    between atoms: _434  and  _435
REMARK  184  A    between atoms: _437  and  _439
REMARK  185  A    between atoms: _439  and  _440
REMARK  186  A    between atoms: _442  and  _444
REMARK  187  A    between atoms: _444  and  _445
REMARK  188  A    between atoms: _444  and  _447
REMARK  189  A    between atoms: _447  and  _448
REMARK  190  A    between atoms: _451  and  _453
REMARK  191  A    between atoms: _453  and  _454
REMARK  192  A    between atoms: _456  and  _458
REMARK  193  A    between atoms: _458  and  _459
REMARK  194  A    between atoms: _461  and  _463
REMARK  195  A    between atoms: _463  and  _464
REMARK  196  A    between atoms: _463  and  _466
REMARK  197  A    between atoms: _466  and  _467
REMARK  198  A    between atoms: _473  and  _475
REMARK  199  A    between atoms: _475  and  _476
REMARK  200  A    between atoms: _475  and  _478
REMARK  201  A    between atoms: _478  and  _479
REMARK  202  A    between atoms: _482  and  _484
REMARK  203  A    between atoms: _484  and  _485
REMARK  204  A    between atoms: _484  and  _487
REMARK  205  A    between atoms: _490  and  _492
REMARK  206  A    between atoms: _492  and  _493
REMARK  207  A    between atoms: _492  and  _495
REMARK  208  A    between atoms: _495  and  _496
REMARK  209  A    between atoms: _499  and  _501
REMARK  210  A    between atoms: _501  and  _502
REMARK  211  A    between atoms: _501  and  _504
REMARK  212  A    between atoms: _504  and  _505
REMARK  213  A    between atoms: _509  and  _510
REMARK  214  A    between atoms: _515  and  _517
REMARK  215  A    between atoms: _517  and  _518
REMARK  216  A    between atoms: _517  and  _520
REMARK  217  A    between atoms: _523  and  _525
REMARK  218  A    between atoms: _525  and  _526
REMARK  219  A    between atoms: _525  and  _528
REMARK  220  A    between atoms: _528  and  _529
REMARK  221  A    between atoms: _534  and  _536
REMARK  222  A    between atoms: _536  and  _537
REMARK  223  A    between atoms: _536  and  _539
REMARK  224  A    between atoms: _539  and  _540
REMARK  225  A    between atoms: _543  and  _545
REMARK  226  A    between atoms: _545  and  _546
REMARK  227  A    between atoms: _545  and  _548
REMARK  228  A    between atoms: _548  and  _549
REMARK  229  A    between atoms: _552  and  _554
REMARK  230  A    between atoms: _554  and  _555
REMARK  231  A    between atoms: _557  and  _559
REMARK  232  A    between atoms: _559  and  _560
REMARK  233  A    between atoms: _559  and  _562
REMARK  234  A    between atoms: _562  and  _563
REMARK  235  A    between atoms: _563  and  _564
REMARK  236  A    between atoms: _564  and  _565
REMARK  237  A    between atoms: _574  and  _576
REMARK  238  A    between atoms: _576  and  _577
REMARK  239  A    between atoms: _576  and  _579
REMARK  240  A    between atoms: _579  and  _580
REMARK                            x       y       z     vdW  Elec       q    Type
REMARK                         _______ _______ _______ _____ _____    ______ ____
ROOT
ATOM      1  C   GLY A   5      17.289  18.392  14.084  0.00  0.00    +0.243 C 
ATOM      2  N   ILE A   6      18.139  19.411  14.202  0.00  0.00    -0.297 N 
ATOM      3  H   ILE A   6      18.354  19.778  15.151  0.00  0.00    +0.150 HD
ATOM      4  O   GLY A   5      17.106  17.792  13.016  0.00  0.00    -0.273 OA
ENDROOT
BRANCH   2   5
ATOM      5  CA  ILE A   6      18.782  20.033  13.039  0.00  0.00    +0.149 C 
BRANCH   5   6
ATOM      6  C   ILE A   6      19.778  19.116  12.325  0.00  0.00    +0.241 C 
ATOM      7  N   GLY A   7      20.515  18.317  13.092  0.00  0.00    -0.295 N 
ATOM      8  H   GLY A   7      20.366  18.323  14.121  0.00  0.00    +0.150 HD
ATOM      9  O   ILE A   6      19.872  19.137  11.103  0.00  0.00    -0.273 OA
BRANCH   7  10
ATOM     10  CA  GLY A   7      21.531  17.429  12.521  0.00  0.00    +0.176 C 
BRANCH  10  11
ATOM     11  C   GLY A   7      21.090  15.983  12.362  0.00  0.00    +0.243 C 
ATOM     12  N   GLY A   8      19.815  15.732  12.639  0.00  0.00    -0.295 N 
ATOM     13  H   GLY A   8      19.209  16.528  12.924  0.00  0.00    +0.150 HD
ATOM     14  O   GLY A   7      21.884  15.120  11.993  0.00  0.00    -0.273 OA
BRANCH  12  15
ATOM     15  CA  GLY A   8      19.214  14.399  12.566  0.00  0.00    +0.176 C 
BRANCH  15  16
ATOM     16  C   GLY A   8      18.495  13.934  13.819  0.00  0.00    +0.243 C 
ATOM     17  O   GLY A   8      17.993  14.746  14.596  0.00  0.00    -0.273 OA
ATOM     18  N   PHE A   9      18.458  12.616  14.004  0.00  0.00    -0.297 N 
ATOM     19  H   PHE A   9      18.985  12.010  13.343  0.00  0.00    +0.150 HD
BRANCH  18  20
ATOM     20  CA  PHE A   9      17.714  11.977  15.090  0.00  0.00    +0.153 C 
BRANCH  20  21
ATOM     21  C   PHE A   9      18.628  11.421  16.188  0.00  0.00    +0.241 C 
ATOM     22  N   ILE A  10      18.163  11.509  17.432  0.00  0.00    -0.298 N 
ATOM     23  H   ILE A  10      17.301  12.066  17.602  0.00  0.00    +0.150 HD
ATOM     24  O   PHE A   9      19.725  10.932  15.910  0.00  0.00    -0.273 OA
BRANCH  22  25
ATOM     25  CA  ILE A  10      18.810  10.857  18.571  0.00  0.00    +0.137 C 
BRANCH  25  26
ATOM     26  C   ILE A  10      17.796  10.019  19.357  0.00  0.00    +0.227 C 
ATOM     27  O   ILE A  10      16.601  10.334  19.372  0.00  0.00    -0.286 OA
ENDBRANCH  25  26
BRANCH  25  28
ATOM     28  CB  ILE A  10      19.515  11.867  19.533  0.00  0.00    +0.026 C 
ATOM     29  CG2 ILE A  10      20.636  12.625  18.809  0.00  0.00    +0.002 C 
BRANCH  28  30
ATOM     30  CG1 ILE A  10      18.501  12.822  20.183  0.00  0.00    +0.002 C 
ATOM     31  CD1 ILE A  10      19.057  13.672  21.315  0.00  0.00    +0.000 C 
ENDBRANCH  28  30
ENDBRANCH  25  28
ENDBRANCH  22  25
ENDBRANCH  20  21
BRANCH  20  32
ATOM     32  CB  PHE A   9      16.831  10.845  14.534  0.00  0.00    +0.055 C 
BRANCH  32  33
ATOM     33  CG  PHE A   9      15.599  11.328  13.815  0.00  0.00    -0.020 A 
ATOM     34  CD2 PHE A   9      14.362  11.342  14.460  0.00  0.00    -0.004 A 
ATOM     35  CE2 PHE A   9      13.214  11.789  13.801  0.00  0.00    -0.000 A 
ATOM     36  CZ  PHE A   9      13.299  12.230  12.483  0.00  0.00    -0.000 A 
ATOM     37  CE1 PHE A   9      14.529  12.220  11.825  0.00  0.00    -0.000 A 
ATOM     38  CD1 PHE A   9      15.671  11.767  12.491  0.00  0.00    -0.004 A 
ENDBRANCH  32  33
ENDBRANCH  20  32
ENDBRANCH  18  20
ENDBRANCH  15  16
ENDBRANCH  12  15
ENDBRANCH  10  11
ENDBRANCH   7  10
ENDBRANCH   5   6
BRANCH   5  39
ATOM     39  CB  ILE A   6      19.454  21.394  13.405  0.00  0.00    +0.027 C 
ATOM     40  CG2 ILE A   6      20.941  21.224  13.722  0.00  0.00    +0.002 C 
BRANCH  39  41
ATOM     41  CG1 ILE A   6      19.250  22.422  12.289  0.00  0.00    +0.002 C 
ATOM     42  CD1 ILE A   6      17.876  23.028  12.260  0.00  0.00    +0.000 C 
ENDBRANCH  39  41
ENDBRANCH   5  39
ENDBRANCH   2   5
BRANCH   1  43
ATOM     43  CA  GLY A   5      16.590  17.953  15.356  0.00  0.00    +0.176 C 
BRANCH  43  46
ATOM     44  C   GLY A   4      14.824  16.263  15.372  0.00  0.00    +0.243 C 
ATOM     45  O   GLY A   4      13.934  17.083  15.574  0.00  0.00    -0.273 OA
ATOM     46  N   GLY A   5      16.111  16.580  15.272  0.00  0.00    -0.295 N 
ATOM     47  H   GLY A   5      16.803  15.817  15.128  0.00  0.00    +0.150 HD
BRANCH  44  48
ATOM     48  CA  GLY A   4      14.499  14.797  15.230  0.00  0.00    +0.176 C 
BRANCH  48  51
ATOM     49  C   ILE A   3      14.343  13.506  17.285  0.00  0.00    +0.241 C 
ATOM     50  O   ILE A   3      15.546  13.227  17.275  0.00  0.00    -0.273 OA
ATOM     51  N   GLY A   4      13.766  14.281  16.373  0.00  0.00    -0.295 N 
ATOM     52  H   GLY A   4      12.761  14.525  16.481  0.00  0.00    +0.150 HD
BRANCH  49  53
ATOM     53  CA  ILE A   3      13.419  12.944  18.361  0.00  0.00    +0.149 C 
BRANCH  53  55
ATOM     54  C   MET A   2      12.874  10.569  18.539  0.00  0.00    +0.241 C 
ATOM     55  N   ILE A   3      13.762  11.554  18.631  0.00  0.00    -0.297 N 
ATOM     56  H   ILE A   3      14.738  11.324  18.906  0.00  0.00    +0.150 HD
ATOM     57  O   MET A   2      11.697  10.742  18.217  0.00  0.00    -0.273 OA
BRANCH  54  58
ATOM     58  CA  MET A   2      13.393   9.185  18.889  0.00  0.00    +0.149 C 
BRANCH  58  61
ATOM     59  C   LYS A   1      12.848   8.295  21.081  0.00  0.00    +0.238 C 
ATOM     60  O   LYS A   1      14.015   8.387  21.473  0.00  0.00    -0.274 OA
ATOM     61  N   MET A   2      12.486   8.547  19.829  0.00  0.00    -0.297 N 
ATOM     62  H   MET A   2      11.531   8.282  19.513  0.00  0.00    +0.150 HD
BRANCH  59  63
ATOM     63  CA  LYS A   1      11.731   7.846  22.023  0.00  0.00    +0.145 C 
BRANCH  63  64
ATOM     64  N   LYS A   1      12.168   6.697  22.805  0.00  0.00    -0.238 NA
ATOM     65  H   LYS A   1      13.181   6.598  23.019  0.00  0.00    +0.142 HD
ENDBRANCH  63  64
BRANCH  63  66
ATOM     66  CB  LYS A   1      11.304   8.997  22.950  0.00  0.00    +0.026 C 
BRANCH  66  67
ATOM     67  CG  LYS A   1      10.732  10.247  22.251  0.00  0.00    -0.000 C 
BRANCH  67  68
ATOM     68  CD  LYS A   1       9.320  10.009  21.743  0.00  0.00    -0.024 C 
BRANCH  68  69
ATOM     69  CE  LYS A   1       8.788  11.169  20.899  0.00  0.00    -0.086 C 
BRANCH  69  70
ATOM     70  NZ  LYS A   1       8.240  12.281  21.714  0.00  0.00    +0.380 N 
ATOM     71  HZ1 LYS A   1       8.987  12.658  22.331  0.00  0.00    -0.089 HD
ATOM     72  HZ2 LYS A   1       7.453  11.928  22.296  0.00  0.00    -0.089 HD
ATOM     73  HZ3 LYS A   1       7.897  13.034  21.084  0.00  0.00    -0.089 HD
ENDBRANCH  69  70
ENDBRANCH  68  69
ENDBRANCH  67  68
ENDBRANCH  66  67
ENDBRANCH  63  66
ENDBRANCH  59  63
ENDBRANCH  58  61
BRANCH  58  74
ATOM     74  CB  MET A   2      13.585   8.339  17.634  0.00  0.00    +0.041 C 
BRANCH  74  75
ATOM     75  CG  MET A   2      14.515   7.155  17.848  0.00  0.00    +0.060 C 
BRANCH  75  76
ATOM     76  SD  MET A   2      15.787   7.061  16.574  0.00  0.00    -0.139 S 
ATOM     77  CE  MET A   2      14.824   6.481  15.174  0.00  0.00    +0.069 C 
ENDBRANCH  75  76
ENDBRANCH  74  75
ENDBRANCH  58  74
ENDBRANCH  54  58
ENDBRANCH  53  55
BRANCH  53  78
ATOM     78  CB  ILE A   3      13.452  13.812  19.648  0.00  0.00    +0.027 C 
ATOM     79  CG2 ILE A   3      12.320  13.396  20.586  0.00  0.00    +0.002 C 
BRANCH  78  80
ATOM     80  CG1 ILE A   3      14.816  13.714  20.349  0.00  0.00    +0.002 C 
ATOM     81  CD1 ILE A   3      15.002  14.661  21.508  0.00  0.00    +0.000 C 
ENDBRANCH  78  80
ENDBRANCH  53  78
ENDBRANCH  49  53
ENDBRANCH  48  51
ENDBRANCH  44  48
ENDBRANCH  43  46
ENDBRANCH   1  43
TORSDOF 36
REMARK  Name = ../refined-set-2016/3kdc/3kdc_pocket.pdb
REMARK  240 active torsions:
REMARK  status: ('A' for Active; 'I' for Inactive)
REMARK    1  A    between atoms: _1  and  _3
REMARK    2  A    between atoms: _3  and  _4
REMARK    3  A    between atoms: _3  and  _6
REMARK    4  A    between atoms: _6  and  _7
REMARK    5  A    between atoms: _7  and  _8
REMARK    6  A    between atoms: _8  and  _9
REMARK    7  A    between atoms: _18  and  _20
REMARK    8  A    between atoms: _20  and  _21
REMARK    9  A    between atoms: _20  and  _23
REMARK   10  A    between atoms: _23  and  _24
REMARK   11  A    between atoms: _27  and  _29
REMARK   12  A    between atoms: _29  and  _30
REMARK   13  A    between atoms: _29  and  _32
REMARK   14  A    between atoms: _32  and  _33
REMARK   15  A    between atoms: _36  and  _38
REMARK   16  A    between atoms: _38  and  _39
REMARK   17  A    between atoms: _38  and  _41
REMARK   18  A    between atoms: _41  and  _42
REMARK   19  A    between atoms: _45  and  _47
REMARK   20  A    between atoms: _47  and  _48
REMARK   21  A    between atoms: _47  and  _50
REMARK   22  A    between atoms: _50  and  _51
REMARK   23  A    between atoms: _54  and  _56
REMARK   24  A    between atoms: _56  and  _57
REMARK   25  A    between atoms: _59  and  _61
REMARK   26  A    between atoms: _61  and  _62
REMARK   27  A    between atoms: _65  and  _67
REMARK   28  A    between atoms: _67  and  _68
REMARK   29  A    between atoms: _67  and  _70
REMARK   30  A    between atoms: _70  and  _71
REMARK   31  A    between atoms: _74  and  _76
REMARK   32  A    between atoms: _76  and  _77
REMARK   33  A    between atoms: _76  and  _79
REMARK   34  A    between atoms: _79  and  _80
REMARK   35  A    between atoms: _83  and  _85
REMARK   36  A    between atoms: _85  and  _86
REMARK   37  A    between atoms: _85  and  _88
REMARK   38  A    between atoms: _88  and  _89
REMARK   39  A    between atoms: _92  and  _94
REMARK   40  A    between atoms: _94  and  _95
REMARK   41  A    between atoms: _94  and  _97
REMARK   42  A    between atoms: _100  and  _102
REMARK   43  A    between atoms: _102  and  _103
REMARK   44  A    between atoms: _102  and  _105
REMARK   45  A    between atoms: _105  and  _106
REMARK   46  A    between atoms: _109  and  _111
REMARK   47  A    between atoms: _111  and  _112
REMARK   48  A    between atoms: _111  and  _114
REMARK   49  A    between atoms: _114  and  _115
REMARK   50  A    between atoms: _115  and  _116
REMARK   51  A    between atoms: _116  and  _117
REMARK   52  A    between atoms: _117  and  _118
REMARK   53  A    between atoms: _122  and  _124
REMARK   54  A    between atoms: _124  and  _125
REMARK   55  A    between atoms: _124  and  _127
REMARK   56  A    between atoms: _127  and  _128
REMARK   57  A    between atoms: _128  and  _129
REMARK   58  A    between atoms: _131  and  _133
REMARK   59  A    between atoms: _133  and  _134
REMARK   60  A    between atoms: _133  and  _136
REMARK   61  A    between atoms: _136  and  _137
REMARK   62  A    between atoms: _140  and  _142
REMARK   63  A    between atoms: _142  and  _143
REMARK   64  A    between atoms: _145  and  _147
REMARK   65  A    between atoms: _147  and  _148
REMARK   66  A    between atoms: _150  and  _152
REMARK   67  A    between atoms: _152  and  _153
REMARK   68  A    between atoms: _152  and  _155
REMARK   69  A    between atoms: _155  and  _156
REMARK   70  A    between atoms: _159  and  _161
REMARK   71  A    between atoms: _161  and  _162
REMARK   72  A    between atoms: _164  and  _166
REMARK   73  A    between atoms: _166  and  _167
REMARK   74  A    between atoms: _169  and  _171
REMARK   75  A    between atoms: _171  and  _172
REMARK   76  A    between atoms: _171  and  _174
REMARK   77  A    between atoms: _174  and  _175
REMARK   78  A    between atoms: _181  and  _183
REMARK   79  A    between atoms: _183  and  _184
REMARK   80  A    between atoms: _183  and  _186
REMARK   81  A    between atoms: _186  and  _187
REMARK   82  A    between atoms: _190  and  _192
REMARK   83  A    between atoms: _192  and  _193
REMARK   84  A    between atoms: _192  and  _195
REMARK   85  A    between atoms: _198  and  _200
REMARK   86  A    between atoms: _200  and  _201
REMARK   87  A    between atoms: _200  and  _203
REMARK   88  A    between atoms: _203  and  _204
REMARK   89  A    between atoms: _207  and  _209
REMARK   90  A    between atoms: _209  and  _210
REMARK   91  A    between atoms: _209  and  _212
REMARK   92  A    between atoms: _212  and  _213
REMARK   93  A    between atoms: _217  and  _218
REMARK   94  A    between atoms: _223  and  _225
REMARK   95  A    between atoms: _225  and  _226
REMARK   96  A    between atoms: _225  and  _228
REMARK   97  A    between atoms: _231  and  _233
REMARK   98  A    between atoms: _233  and  _234
REMARK   99  A    between atoms: _233  and  _236
REMARK  100  A    between atoms: _236  and  _237
REMARK  101  A    between atoms: _242  and  _244
REMARK  102  A    between atoms: _244  and  _245
REMARK  103  A    between atoms: _244  and  _247
REMARK  104  A    between atoms: _247  and  _248
REMARK  105  A    between atoms: _251  and  _253
REMARK  106  A    between atoms: _253  and  _254
REMARK  107  A    between atoms: _253  and  _256
REMARK  108  A    between atoms: _256  and  _257
REMARK  109  A    between atoms: _260  and  _262
REMARK  110  A    between atoms: _262  and  _263
REMARK  111  A    between atoms: _265  and  _267
REMARK  112  A    between atoms: _267  and  _268
REMARK  113  A    between atoms: _267  and  _270
REMARK  114  A    between atoms: _270  and  _271
REMARK  115  A    between atoms: _271  and  _272
REMARK  116  A    between atoms: _272  and  _273
REMARK  117  A    between atoms: _282  and  _284
REMARK  118  A    between atoms: _284  and  _285
REMARK  119  A    between atoms: _284  and  _287
REMARK  120  A    between atoms: _287  and  _288
REMARK  121  A    between atoms: _293  and  _295
REMARK  122  A    between atoms: _295  and  _296
REMARK  123  A    between atoms: _295  and  _298
REMARK  124  A    between atoms: _298  and  _299
REMARK  125  A    between atoms: _299  and  _300
REMARK  126  A    between atoms: _300  and  _301
REMARK  127  A    between atoms: _310  and  _312
REMARK  128  A    between atoms: _312  and  _313
REMARK  129  A    between atoms: _312  and  _315
REMARK  130  A    between atoms: _315  and  _316
REMARK  131  A    between atoms: _319  and  _321
REMARK  132  A    between atoms: _321  and  _322
REMARK  133  A    between atoms: _321  and  _324
REMARK  134  A    between atoms: _324  and  _325
REMARK  135  A    between atoms: _328  and  _330
REMARK  136  A    between atoms: _330  and  _331
REMARK  137  A    between atoms: _330  and  _333
REMARK  138  A    between atoms: _333  and  _334
REMARK  139  A    between atoms: _337  and  _339
REMARK  140  A    between atoms: _339  and  _340
REMARK  141  A    between atoms: _339  and  _342
REMARK  142  A    between atoms: _342  and  _343
REMARK  143  A    between atoms: _346  and  _348
REMARK  144  A    between atoms: _348  and  _349
REMARK  145  A    between atoms: _348  and  _351
REMARK  146  A    between atoms: _351  and  _352
REMARK  147  A    between atoms: _355  and  _357
REMARK  148  A    between atoms: _357  and  _358
REMARK  149  A    between atoms: _360  and  _362
REMARK  150  A    between atoms: _362  and  _363
REMARK  151  A    between atoms: _366  and  _368
REMARK  152  A    between atoms: _368  and  _369
REMARK  153  A    between atoms: _368  and  _371
REMARK  154  A    between atoms: _371  and  _372
REMARK  155  A    between atoms: _375  and  _377
REMARK  156  A    between atoms: _377  and  _378
REMARK  157  A    between atoms: _377  and  _380
REMARK  158  A    between atoms: _380  and  _381
REMARK  159  A    between atoms: _384  and  _386
REMARK  160  A    between atoms: _386  and  _387
REMARK  161  A    between atoms: _386  and  _389
REMARK  162  A    between atoms: _389  and  _390
REMARK  163  A    between atoms: _393  and  _395
REMARK  164  A    between atoms: _395  and  _396
REMARK  165  A    between atoms: _395  and  _398
REMARK  166  A    between atoms: _401  and  _403
REMARK  167  A    between atoms: _403  and  _404
REMARK  168  A    between atoms: _403  and  _406
REMARK  169  A    between atoms: _406  and  _407
REMARK  170  A    between atoms: _407  and  _408
REMARK  171  A    between atoms: _408  and  _409
REMARK  172  A    between atoms: _409  and  _410
REMARK  173  A    between atoms: _414  and  _416
REMARK  174  A    between atoms: _416  and  _417
REMARK  175  A    between atoms: _416  and  _419
REMARK  176  A    between atoms: _419  and  _420
REMARK  177  A    between atoms: _420  and  _421
REMARK  178  A    between atoms: _423  and  _425
REMARK  179  A    between atoms: _425  and  _426
REMARK  180  A    between atoms: _425  and  _428
REMARK  181  A    between atoms: _428  and  _429
REMARK  182  A    between atoms: _432  and  _434
REMARK  183  A    between atoms: _434  and  _435
REMARK  184  A    between atoms: _437  and  _439
REMARK  185  A    between atoms: _439  and  _440
REMARK  186  A    between atoms: _442  and  _444
REMARK  187  A    between atoms: _444  and  _445
REMARK  188  A    between atoms: _444  and  _447
REMARK  189  A    between atoms: _447  and  _448
REMARK  190  A    between atoms: _451  and  _453
REMARK  191  A    between atoms: _453  and  _454
REMARK  192  A    between atoms: _456  and  _458
REMARK  193  A    between atoms: _458  and  _459
REMARK  194  A    between atoms: _461  and  _463
REMARK  195  A    between atoms: _463  and  _464
REMARK  196  A    between atoms: _463  and  _466
REMARK  197  A    between atoms: _466  and  _467
REMARK  198  A    between atoms: _473  and  _475
REMARK  199  A    between atoms: _475  and  _476
REMARK  200  A    between atoms: _475  and  _478
REMARK  201  A    between atoms: _478  and  _479
REMARK  202  A    between atoms: _482  and  _484
REMARK  203  A    between atoms: _484  and  _485
REMARK  204  A    between atoms: _484  and  _487
REMARK  205  A    between atoms: _490  and  _492
REMARK  206  A    between atoms: _492  and  _493
REMARK  207  A    between atoms: _492  and  _495
REMARK  208  A    between atoms: _495  and  _496
REMARK  209  A    between atoms: _499  and  _501
REMARK  210  A    between atoms: _501  and  _502
REMARK  211  A    between atoms: _501  and  _504
REMARK  212  A    between atoms: _504  and  _505
REMARK  213  A    between atoms: _509  and  _510
REMARK  214  A    between atoms: _515  and  _517
REMARK  215  A    between atoms: _517  and  _518
REMARK  216  A    between atoms: _517  and  _520
REMARK  217  A    between atoms: _523  and  _525
REMARK  218  A    between atoms: _525  and  _526
REMARK  219  A    between atoms: _525  and  _528
REMARK  220  A    between atoms: _528  and  _529
REMARK  221  A    between atoms: _534  and  _536
REMARK  222  A    between atoms: _536  and  _537
REMARK  223  A    between atoms: _536  and  _539
REMARK  224  A    between atoms: _539  and  _540
REMARK  225  A    between atoms: _543  and  _545
REMARK  226  A    between atoms: _545  and  _546
REMARK  227  A    between atoms: _545  and  _548
REMARK  228  A    between atoms: _548  and  _549
REMARK  229  A    between atoms: _552  and  _554
REMARK  230  A    between atoms: _554  and  _555
REMARK  231  A    between atoms: _557  and  _559
REMARK  232  A    between atoms: _559  and  _560
REMARK  233  A    between atoms: _559  and  _562
REMARK  234  A    between atoms: _562  and  _563
REMARK  235  A    between atoms: _563  and  _564
REMARK  236  A    between atoms: _564  and  _565
REMARK  237  A    between atoms: _574  and  _576
REMARK  238  A    between atoms: _576  and  _577
REMARK  239  A    between atoms: _576  and  _579
REMARK  240  A    between atoms: _579  and  _580
REMARK                            x       y       z     vdW  Elec       q    Type
REMARK                         _______ _______ _______ _____ _____    ______ ____
ROOT
ATOM      1  CA  VAL A   1      16.317   9.453  24.328  0.00  0.00    +0.133 C 
ENDROOT
BRANCH   1   2
ATOM      2  CB  VAL A   1      15.670  10.877  24.335  0.00  0.00    +0.023 C 
ATOM      3  CG2 VAL A   1      14.292  10.860  23.680  0.00  0.00    +0.002 C 
ATOM      4  CG1 VAL A   1      16.574  11.900  23.654  0.00  0.00    +0.002 C 
ENDBRANCH   1   2
BRANCH   1   5
ATOM      5  N   VAL A   1      16.419   8.905  22.982  0.00  0.00    -0.239 NA
ATOM      6  H   VAL A   1      15.554   8.558  22.521  0.00  0.00    +0.142 HD
ENDBRANCH   1   5
BRANCH   1   7
ATOM      7  C   VAL A   1      15.492   8.510  25.207  0.00  0.00    +0.224 C 
ATOM      8  O   VAL A   1      14.786   7.627  24.702  0.00  0.00    -0.287 OA
ENDBRANCH   1   7
TORSDOF 3
REMARK  Name = ../refined-set-2016/3kdc/3kdc_pocket.pdb
REMARK  240 active torsions:
REMARK  status: ('A' for Active; 'I' for Inactive)
REMARK    1  A    between atoms: _1  and  _3
REMARK    2  A    between atoms: _3  and  _4
REMARK    3  A    between atoms: _3  and  _6
REMARK    4  A    between atoms: _6  and  _7
REMARK    5  A    between atoms: _7  and  _8
REMARK    6  A    between atoms: _8  and  _9
REMARK    7  A    between atoms: _18  and  _20
REMARK    8  A    between atoms: _20  and  _21
REMARK    9  A    between atoms: _20  and  _23
REMARK   10  A    between atoms: _23  and  _24
REMARK   11  A    between atoms: _27  and  _29
REMARK   12  A    between atoms: _29  and  _30
REMARK   13  A    between atoms: _29  and  _32
REMARK   14  A    between atoms: _32  and  _33
REMARK   15  A    between atoms: _36  and  _38
REMARK   16  A    between atoms: _38  and  _39
REMARK   17  A    between atoms: _38  and  _41
REMARK   18  A    between atoms: _41  and  _42
REMARK   19  A    between atoms: _45  and  _47
REMARK   20  A    between atoms: _47  and  _48
REMARK   21  A    between atoms: _47  and  _50
REMARK   22  A    between atoms: _50  and  _51
REMARK   23  A    between atoms: _54  and  _56
REMARK   24  A    between atoms: _56  and  _57
REMARK   25  A    between atoms: _59  and  _61
REMARK   26  A    between atoms: _61  and  _62
REMARK   27  A    between atoms: _65  and  _67
REMARK   28  A    between atoms: _67  and  _68
REMARK   29  A    between atoms: _67  and  _70
REMARK   30  A    between atoms: _70  and  _71
REMARK   31  A    between atoms: _74  and  _76
REMARK   32  A    between atoms: _76  and  _77
REMARK   33  A    between atoms: _76  and  _79
REMARK   34  A    between atoms: _79  and  _80
REMARK   35  A    between atoms: _83  and  _85
REMARK   36  A    between atoms: _85  and  _86
REMARK   37  A    between atoms: _85  and  _88
REMARK   38  A    between atoms: _88  and  _89
REMARK   39  A    between atoms: _92  and  _94
REMARK   40  A    between atoms: _94  and  _95
REMARK   41  A    between atoms: _94  and  _97
REMARK   42  A    between atoms: _100  and  _102
REMARK   43  A    between atoms: _102  and  _103
REMARK   44  A    between atoms: _102  and  _105
REMARK   45  A    between atoms: _105  and  _106
REMARK   46  A    between atoms: _109  and  _111
REMARK   47  A    between atoms: _111  and  _112
REMARK   48  A    between atoms: _111  and  _114
REMARK   49  A    between atoms: _114  and  _115
REMARK   50  A    between atoms: _115  and  _116
REMARK   51  A    between atoms: _116  and  _117
REMARK   52  A    between atoms: _117  and  _118
REMARK   53  A    between atoms: _122  and  _124
REMARK   54  A    between atoms: _124  and  _125
REMARK   55  A    between atoms: _124  and  _127
REMARK   56  A    between atoms: _127  and  _128
REMARK   57  A    between atoms: _128  and  _129
REMARK   58  A    between atoms: _131  and  _133
REMARK   59  A    between atoms: _133  and  _134
REMARK   60  A    between atoms: _133  and  _136
REMARK   61  A    between atoms: _136  and  _137
REMARK   62  A    between atoms: _140  and  _142
REMARK   63  A    between atoms: _142  and  _143
REMARK   64  A    between atoms: _145  and  _147
REMARK   65  A    between atoms: _147  and  _148
REMARK   66  A    between atoms: _150  and  _152
REMARK   67  A    between atoms: _152  and  _153
REMARK   68  A    between atoms: _152  and  _155
REMARK   69  A    between atoms: _155  and  _156
REMARK   70  A    between atoms: _159  and  _161
REMARK   71  A    between atoms: _161  and  _162
REMARK   72  A    between atoms: _164  and  _166
REMARK   73  A    between atoms: _166  and  _167
REMARK   74  A    between atoms: _169  and  _171
REMARK   75  A    between atoms: _171  and  _172
REMARK   76  A    between atoms: _171  and  _174
REMARK   77  A    between atoms: _174  and  _175
REMARK   78  A    between atoms: _181  and  _183
REMARK   79  A    between atoms: _183  and  _184
REMARK   80  A    between atoms: _183  and  _186
REMARK   81  A    between atoms: _186  and  _187
REMARK   82  A    between atoms: _190  and  _192
REMARK   83  A    between atoms: _192  and  _193
REMARK   84  A    between atoms: _192  and  _195
REMARK   85  A    between atoms: _198  and  _200
REMARK   86  A    between atoms: _200  and  _201
REMARK   87  A    between atoms: _200  and  _203
REMARK   88  A    between atoms: _203  and  _204
REMARK   89  A    between atoms: _207  and  _209
REMARK   90  A    between atoms: _209  and  _210
REMARK   91  A    between atoms: _209  and  _212
REMARK   92  A    between atoms: _212  and  _213
REMARK   93  A    between atoms: _217  and  _218
REMARK   94  A    between atoms: _223  and  _225
REMARK   95  A    between atoms: _225  and  _226
REMARK   96  A    between atoms: _225  and  _228
REMARK   97  A    between atoms: _231  and  _233
REMARK   98  A    between atoms: _233  and  _234
REMARK   99  A    between atoms: _233  and  _236
REMARK  100  A    between atoms: _236  and  _237
REMARK  101  A    between atoms: _242  and  _244
REMARK  102  A    between atoms: _244  and  _245
REMARK  103  A    between atoms: _244  and  _247
REMARK  104  A    between atoms: _247  and  _248
REMARK  105  A    between atoms: _251  and  _253
REMARK  106  A    between atoms: _253  and  _254
REMARK  107  A    between atoms: _253  and  _256
REMARK  108  A    between atoms: _256  and  _257
REMARK  109  A    between atoms: _260  and  _262
REMARK  110  A    between atoms: _262  and  _263
REMARK  111  A    between atoms: _265  and  _267
REMARK  112  A    between atoms: _267  and  _268
REMARK  113  A    between atoms: _267  and  _270
REMARK  114  A    between atoms: _270  and  _271
REMARK  115  A    between atoms: _271  and  _272
REMARK  116  A    between atoms: _272  and  _273
REMARK  117  A    between atoms: _282  and  _284
REMARK  118  A    between atoms: _284  and  _285
REMARK  119  A    between atoms: _284  and  _287
REMARK  120  A    between atoms: _287  and  _288
REMARK  121  A    between atoms: _293  and  _295
REMARK  122  A    between atoms: _295  and  _296
REMARK  123  A    between atoms: _295  and  _298
REMARK  124  A    between atoms: _298  and  _299
REMARK  125  A    between atoms: _299  and  _300
REMARK  126  A    between atoms: _300  and  _301
REMARK  127  A    between atoms: _310  and  _312
REMARK  128  A    between atoms: _312  and  _313
REMARK  129  A    between atoms: _312  and  _315
REMARK  130  A    between atoms: _315  and  _316
REMARK  131  A    between atoms: _319  and  _321
REMARK  132  A    between atoms: _321  and  _322
REMARK  133  A    between atoms: _321  and  _324
REMARK  134  A    between atoms: _324  and  _325
REMARK  135  A    between atoms: _328  and  _330
REMARK  136  A    between atoms: _330  and  _331
REMARK  137  A    between atoms: _330  and  _333
REMARK  138  A    between atoms: _333  and  _334
REMARK  139  A    between atoms: _337  and  _339
REMARK  140  A    between atoms: _339  and  _340
REMARK  141  A    between atoms: _339  and  _342
REMARK  142  A    between atoms: _342  and  _343
REMARK  143  A    between atoms: _346  and  _348
REMARK  144  A    between atoms: _348  and  _349
REMARK  145  A    between atoms: _348  and  _351
REMARK  146  A    between atoms: _351  and  _352
REMARK  147  A    between atoms: _355  and  _357
REMARK  148  A    between atoms: _357  and  _358
REMARK  149  A    between atoms: _360  and  _362
REMARK  150  A    between atoms: _362  and  _363
REMARK  151  A    between atoms: _366  and  _368
REMARK  152  A    between atoms: _368  and  _369
REMARK  153  A    between atoms: _368  and  _371
REMARK  154  A    between atoms: _371  and  _372
REMARK  155  A    between atoms: _375  and  _377
REMARK  156  A    between atoms: _377  and  _378
REMARK  157  A    between atoms: _377  and  _380
REMARK  158  A    between atoms: _380  and  _381
REMARK  159  A    between atoms: _384  and  _386
REMARK  160  A    between atoms: _386  and  _387
REMARK  161  A    between atoms: _386  and  _389
REMARK  162  A    between atoms: _389  and  _390
REMARK  163  A    between atoms: _393  and  _395
REMARK  164  A    between atoms: _395  and  _396
REMARK  165  A    between atoms: _395  and  _398
REMARK  166  A    between atoms: _401  and  _403
REMARK  167  A    between atoms: _403  and  _404
REMARK  168  A    between atoms: _403  and  _406
REMARK  169  A    between atoms: _406  and  _407
REMARK  170  A    between atoms: _407  and  _408
REMARK  171  A    between atoms: _408  and  _409
REMARK  172  A    between atoms: _409  and  _410
REMARK  173  A    between atoms: _414  and  _416
REMARK  174  A    between atoms: _416  and  _417
REMARK  175  A    between atoms: _416  and  _419
REMARK  176  A    between atoms: _419  and  _420
REMARK  177  A    between atoms: _420  and  _421
REMARK  178  A    between atoms: _423  and  _425
REMARK  179  A    between atoms: _425  and  _426
REMARK  180  A    between atoms: _425  and  _428
REMARK  181  A    between atoms: _428  and  _429
REMARK  182  A    between atoms: _432  and  _434
REMARK  183  A    between atoms: _434  and  _435
REMARK  184  A    between atoms: _437  and  _439
REMARK  185  A    between atoms: _439  and  _440
REMARK  186  A    between atoms: _442  and  _444
REMARK  187  A    between atoms: _444  and  _445
REMARK  188  A    between atoms: _444  and  _447
REMARK  189  A    between atoms: _447  and  _448
REMARK  190  A    between atoms: _451  and  _453
REMARK  191  A    between atoms: _453  and  _454
REMARK  192  A    between atoms: _456  and  _458
REMARK  193  A    between atoms: _458  and  _459
REMARK  194  A    between atoms: _461  and  _463
REMARK  195  A    between atoms: _463  and  _464
REMARK  196  A    between atoms: _463  and  _466
REMARK  197  A    between atoms: _466  and  _467
REMARK  198  A    between atoms: _473  and  _475
REMARK  199  A    between atoms: _475  and  _476
REMARK  200  A    between atoms: _475  and  _478
REMARK  201  A    between atoms: _478  and  _479
REMARK  202  A    between atoms: _482  and  _484
REMARK  203  A    between atoms: _484  and  _485
REMARK  204  A    between atoms: _484  and  _487
REMARK  205  A    between atoms: _490  and  _492
REMARK  206  A    between atoms: _492  and  _493
REMARK  207  A    between atoms: _492  and  _495
REMARK  208  A    between atoms: _495  and  _496
REMARK  209  A    between atoms: _499  and  _501
REMARK  210  A    between atoms: _501  and  _502
REMARK  211  A    between atoms: _501  and  _504
REMARK  212  A    between atoms: _504  and  _505
REMARK  213  A    between atoms: _509  and  _510
REMARK  214  A    between atoms: _515  and  _517
REMARK  215  A    between atoms: _517  and  _518
REMARK  216  A    between atoms: _517  and  _520
REMARK  217  A    between atoms: _523  and  _525
REMARK  218  A    between atoms: _525  and  _526
REMARK  219  A    between atoms: _525  and  _528
REMARK  220  A    between atoms: _528  and  _529
REMARK  221  A    between atoms: _534  and  _536
REMARK  222  A    between atoms: _536  and  _537
REMARK  223  A    between atoms: _536  and  _539
REMARK  224  A    between atoms: _539  and  _540
REMARK  225  A    between atoms: _543  and  _545
REMARK  226  A    between atoms: _545  and  _546
REMARK  227  A    between atoms: _545  and  _548
REMARK  228  A    between atoms: _548  and  _549
REMARK  229  A    between atoms: _552  and  _554
REMARK  230  A    between atoms: _554  and  _555
REMARK  231  A    between atoms: _557  and  _559
REMARK  232  A    between atoms: _559  and  _560
REMARK  233  A    between atoms: _559  and  _562
REMARK  234  A    between atoms: _562  and  _563
REMARK  235  A    between atoms: _563  and  _564
REMARK  236  A    between atoms: _564  and  _565
REMARK  237  A    between atoms: _574  and  _576
REMARK  238  A    between atoms: _576  and  _577
REMARK  239  A    between atoms: _576  and  _579
REMARK  240  A    between atoms: _579  and  _580
REMARK                            x       y       z     vdW  Elec       q    Type
REMARK                         _______ _______ _______ _____ _____    ______ ____
ROOT
ATOM      1  CA  LEU A   1      13.277  13.187  27.881  0.00  0.00    +0.133 C 
ENDROOT
BRANCH   1   2
ATOM      2  N   LEU A   1      12.422  14.083  28.650  0.00  0.00    -0.239 NA
ATOM      3  H   LEU A   1      12.262  15.050  28.304  0.00  0.00    +0.142 HD
ENDBRANCH   1   2
BRANCH   1   4
ATOM      4  C   LEU A   1      14.735  13.363  28.308  0.00  0.00    +0.224 C 
ATOM      5  O   LEU A   1      15.193  14.486  28.538  0.00  0.00    -0.287 OA
ENDBRANCH   1   4
BRANCH   1   6
ATOM      6  CB  LEU A   1      13.115  13.427  26.373  0.00  0.00    +0.025 C 
BRANCH   6   7
ATOM      7  CG  LEU A   1      11.704  13.547  25.781  0.00  0.00    +0.002 C 
ATOM      8  CD2 LEU A   1      10.862  12.299  26.039  0.00  0.00    +0.000 C 
ATOM      9  CD1 LEU A   1      11.782  13.837  24.293  0.00  0.00    +0.000 C 
ENDBRANCH   6   7
ENDBRANCH   1   6
TORSDOF 4
REMARK  Name = ../refined-set-2016/3kdc/3kdc_pocket.pdb
REMARK  240 active torsions:
REMARK  status: ('A' for Active; 'I' for Inactive)
REMARK    1  A    between atoms: _1  and  _3
REMARK    2  A    between atoms: _3  and  _4
REMARK    3  A    between atoms: _3  and  _6
REMARK    4  A    between atoms: _6  and  _7
REMARK    5  A    between atoms: _7  and  _8
REMARK    6  A    between atoms: _8  and  _9
REMARK    7  A    between atoms: _18  and  _20
REMARK    8  A    between atoms: _20  and  _21
REMARK    9  A    between atoms: _20  and  _23
REMARK   10  A    between atoms: _23  and  _24
REMARK   11  A    between atoms: _27  and  _29
REMARK   12  A    between atoms: _29  and  _30
REMARK   13  A    between atoms: _29  and  _32
REMARK   14  A    between atoms: _32  and  _33
REMARK   15  A    between atoms: _36  and  _38
REMARK   16  A    between atoms: _38  and  _39
REMARK   17  A    between atoms: _38  and  _41
REMARK   18  A    between atoms: _41  and  _42
REMARK   19  A    between atoms: _45  and  _47
REMARK   20  A    between atoms: _47  and  _48
REMARK   21  A    between atoms: _47  and  _50
REMARK   22  A    between atoms: _50  and  _51
REMARK   23  A    between atoms: _54  and  _56
REMARK   24  A    between atoms: _56  and  _57
REMARK   25  A    between atoms: _59  and  _61
REMARK   26  A    between atoms: _61  and  _62
REMARK   27  A    between atoms: _65  and  _67
REMARK   28  A    between atoms: _67  and  _68
REMARK   29  A    between atoms: _67  and  _70
REMARK   30  A    between atoms: _70  and  _71
REMARK   31  A    between atoms: _74  and  _76
REMARK   32  A    between atoms: _76  and  _77
REMARK   33  A    between atoms: _76  and  _79
REMARK   34  A    between atoms: _79  and  _80
REMARK   35  A    between atoms: _83  and  _85
REMARK   36  A    between atoms: _85  and  _86
REMARK   37  A    between atoms: _85  and  _88
REMARK   38  A    between atoms: _88  and  _89
REMARK   39  A    between atoms: _92  and  _94
REMARK   40  A    between atoms: _94  and  _95
REMARK   41  A    between atoms: _94  and  _97
REMARK   42  A    between atoms: _100  and  _102
REMARK   43  A    between atoms: _102  and  _103
REMARK   44  A    between atoms: _102  and  _105
REMARK   45  A    between atoms: _105  and  _106
REMARK   46  A    between atoms: _109  and  _111
REMARK   47  A    between atoms: _111  and  _112
REMARK   48  A    between atoms: _111  and  _114
REMARK   49  A    between atoms: _114  and  _115
REMARK   50  A    between atoms: _115  and  _116
REMARK   51  A    between atoms: _116  and  _117
REMARK   52  A    between atoms: _117  and  _118
REMARK   53  A    between atoms: _122  and  _124
REMARK   54  A    between atoms: _124  and  _125
REMARK   55  A    between atoms: _124  and  _127
REMARK   56  A    between atoms: _127  and  _128
REMARK   57  A    between atoms: _128  and  _129
REMARK   58  A    between atoms: _131  and  _133
REMARK   59  A    between atoms: _133  and  _134
REMARK   60  A    between atoms: _133  and  _136
REMARK   61  A    between atoms: _136  and  _137
REMARK   62  A    between atoms: _140  and  _142
REMARK   63  A    between atoms: _142  and  _143
REMARK   64  A    between atoms: _145  and  _147
REMARK   65  A    between atoms: _147  and  _148
REMARK   66  A    between atoms: _150  and  _152
REMARK   67  A    between atoms: _152  and  _153
REMARK   68  A    between atoms: _152  and  _155
REMARK   69  A    between atoms: _155  and  _156
REMARK   70  A    between atoms: _159  and  _161
REMARK   71  A    between atoms: _161  and  _162
REMARK   72  A    between atoms: _164  and  _166
REMARK   73  A    between atoms: _166  and  _167
REMARK   74  A    between atoms: _169  and  _171
REMARK   75  A    between atoms: _171  and  _172
REMARK   76  A    between atoms: _171  and  _174
REMARK   77  A    between atoms: _174  and  _175
REMARK   78  A    between atoms: _181  and  _183
REMARK   79  A    between atoms: _183  and  _184
REMARK   80  A    between atoms: _183  and  _186
REMARK   81  A    between atoms: _186  and  _187
REMARK   82  A    between atoms: _190  and  _192
REMARK   83  A    between atoms: _192  and  _193
REMARK   84  A    between atoms: _192  and  _195
REMARK   85  A    between atoms: _198  and  _200
REMARK   86  A    between atoms: _200  and  _201
REMARK   87  A    between atoms: _200  and  _203
REMARK   88  A    between atoms: _203  and  _204
REMARK   89  A    between atoms: _207  and  _209
REMARK   90  A    between atoms: _209  and  _210
REMARK   91  A    between atoms: _209  and  _212
REMARK   92  A    between atoms: _212  and  _213
REMARK   93  A    between atoms: _217  and  _218
REMARK   94  A    between atoms: _223  and  _225
REMARK   95  A    between atoms: _225  and  _226
REMARK   96  A    between atoms: _225  and  _228
REMARK   97  A    between atoms: _231  and  _233
REMARK   98  A    between atoms: _233  and  _234
REMARK   99  A    between atoms: _233  and  _236
REMARK  100  A    between atoms: _236  and  _237
REMARK  101  A    between atoms: _242  and  _244
REMARK  102  A    between atoms: _244  and  _245
REMARK  103  A    between atoms: _244  and  _247
REMARK  104  A    between atoms: _247  and  _248
REMARK  105  A    between atoms: _251  and  _253
REMARK  106  A    between atoms: _253  and  _254
REMARK  107  A    between atoms: _253  and  _256
REMARK  108  A    between atoms: _256  and  _257
REMARK  109  A    between atoms: _260  and  _262
REMARK  110  A    between atoms: _262  and  _263
REMARK  111  A    between atoms: _265  and  _267
REMARK  112  A    between atoms: _267  and  _268
REMARK  113  A    between atoms: _267  and  _270
REMARK  114  A    between atoms: _270  and  _271
REMARK  115  A    between atoms: _271  and  _272
REMARK  116  A    between atoms: _272  and  _273
REMARK  117  A    between atoms: _282  and  _284
REMARK  118  A    between atoms: _284  and  _285
REMARK  119  A    between atoms: _284  and  _287
REMARK  120  A    between atoms: _287  and  _288
REMARK  121  A    between atoms: _293  and  _295
REMARK  122  A    between atoms: _295  and  _296
REMARK  123  A    between atoms: _295  and  _298
REMARK  124  A    between atoms: _298  and  _299
REMARK  125  A    between atoms: _299  and  _300
REMARK  126  A    between atoms: _300  and  _301
REMARK  127  A    between atoms: _310  and  _312
REMARK  128  A    between atoms: _312  and  _313
REMARK  129  A    between atoms: _312  and  _315
REMARK  130  A    between atoms: _315  and  _316
REMARK  131  A    between atoms: _319  and  _321
REMARK  132  A    between atoms: _321  and  _322
REMARK  133  A    between atoms: _321  and  _324
REMARK  134  A    between atoms: _324  and  _325
REMARK  135  A    between atoms: _328  and  _330
REMARK  136  A    between atoms: _330  and  _331
REMARK  137  A    between atoms: _330  and  _333
REMARK  138  A    between atoms: _333  and  _334
REMARK  139  A    between atoms: _337  and  _339
REMARK  140  A    between atoms: _339  and  _340
REMARK  141  A    between atoms: _339  and  _342
REMARK  142  A    between atoms: _342  and  _343
REMARK  143  A    between atoms: _346  and  _348
REMARK  144  A    between atoms: _348  and  _349
REMARK  145  A    between atoms: _348  and  _351
REMARK  146  A    between atoms: _351  and  _352
REMARK  147  A    between atoms: _355  and  _357
REMARK  148  A    between atoms: _357  and  _358
REMARK  149  A    between atoms: _360  and  _362
REMARK  150  A    between atoms: _362  and  _363
REMARK  151  A    between atoms: _366  and  _368
REMARK  152  A    between atoms: _368  and  _369
REMARK  153  A    between atoms: _368  and  _371
REMARK  154  A    between atoms: _371  and  _372
REMARK  155  A    between atoms: _375  and  _377
REMARK  156  A    between atoms: _377  and  _378
REMARK  157  A    between atoms: _377  and  _380
REMARK  158  A    between atoms: _380  and  _381
REMARK  159  A    between atoms: _384  and  _386
REMARK  160  A    between atoms: _386  and  _387
REMARK  161  A    between atoms: _386  and  _389
REMARK  162  A    between atoms: _389  and  _390
REMARK  163  A    between atoms: _393  and  _395
REMARK  164  A    between atoms: _395  and  _396
REMARK  165  A    between atoms: _395  and  _398
REMARK  166  A    between atoms: _401  and  _403
REMARK  167  A    between atoms: _403  and  _404
REMARK  168  A    between atoms: _403  and  _406
REMARK  169  A    between atoms: _406  and  _407
REMARK  170  A    between atoms: _407  and  _408
REMARK  171  A    between atoms: _408  and  _409
REMARK  172  A    between atoms: _409  and  _410
REMARK  173  A    between atoms: _414  and  _416
REMARK  174  A    between atoms: _416  and  _417
REMARK  175  A    between atoms: _416  and  _419
REMARK  176  A    between atoms: _419  and  _420
REMARK  177  A    between atoms: _420  and  _421
REMARK  178  A    between atoms: _423  and  _425
REMARK  179  A    between atoms: _425  and  _426
REMARK  180  A    between atoms: _425  and  _428
REMARK  181  A    between atoms: _428  and  _429
REMARK  182  A    between atoms: _432  and  _434
REMARK  183  A    between atoms: _434  and  _435
REMARK  184  A    between atoms: _437  and  _439
REMARK  185  A    between atoms: _439  and  _440
REMARK  186  A    between atoms: _442  and  _444
REMARK  187  A    between atoms: _444  and  _445
REMARK  188  A    between atoms: _444  and  _447
REMARK  189  A    between atoms: _447  and  _448
REMARK  190  A    between atoms: _451  and  _453
REMARK  191  A    between atoms: _453  and  _454
REMARK  192  A    between atoms: _456  and  _458
REMARK  193  A    between atoms: _458  and  _459
REMARK  194  A    between atoms: _461  and  _463
REMARK  195  A    between atoms: _463  and  _464
REMARK  196  A    between atoms: _463  and  _466
REMARK  197  A    between atoms: _466  and  _467
REMARK  198  A    between atoms: _473  and  _475
REMARK  199  A    between atoms: _475  and  _476
REMARK  200  A    between atoms: _475  and  _478
REMARK  201  A    between atoms: _478  and  _479
REMARK  202  A    between atoms: _482  and  _484
REMARK  203  A    between atoms: _484  and  _485
REMARK  204  A    between atoms: _484  and  _487
REMARK  205  A    between atoms: _490  and  _492
REMARK  206  A    between atoms: _492  and  _493
REMARK  207  A    between atoms: _492  and  _495
REMARK  208  A    between atoms: _495  and  _496
REMARK  209  A    between atoms: _499  and  _501
REMARK  210  A    between atoms: _501  and  _502
REMARK  211  A    between atoms: _501  and  _504
REMARK  212  A    between atoms: _504  and  _505
REMARK  213  A    between atoms: _509  and  _510
REMARK  214  A    between atoms: _515  and  _517
REMARK  215  A    between atoms: _517  and  _518
REMARK  216  A    between atoms: _517  and  _520
REMARK  217  A    between atoms: _523  and  _525
REMARK  218  A    between atoms: _525  and  _526
REMARK  219  A    between atoms: _525  and  _528
REMARK  220  A    between atoms: _528  and  _529
REMARK  221  A    between atoms: _534  and  _536
REMARK  222  A    between atoms: _536  and  _537
REMARK  223  A    between atoms: _536  and  _539
REMARK  224  A    between atoms: _539  and  _540
REMARK  225  A    between atoms: _543  and  _545
REMARK  226  A    between atoms: _545  and  _546
REMARK  227  A    between atoms: _545  and  _548
REMARK  228  A    between atoms: _548  and  _549
REMARK  229  A    between atoms: _552  and  _554
REMARK  230  A    between atoms: _554  and  _555
REMARK  231  A    between atoms: _557  and  _559
REMARK  232  A    between atoms: _559  and  _560
REMARK  233  A    between atoms: _559  and  _562
REMARK  234  A    between atoms: _562  and  _563
REMARK  235  A    between atoms: _563  and  _564
REMARK  236  A    between atoms: _564  and  _565
REMARK  237  A    between atoms: _574  and  _576
REMARK  238  A    between atoms: _576  and  _577
REMARK  239  A    between atoms: _576  and  _579
REMARK  240  A    between atoms: _579  and  _580
REMARK                            x       y       z     vdW  Elec       q    Type
REMARK                         _______ _______ _______ _____ _____    ______ ____
ROOT
ATOM      1  C   ILE A   5      14.394  22.205  27.128  0.00  0.00    +0.241 C 
ATOM      2  N   ILE A   6      13.680  23.291  27.386  0.00  0.00    -0.297 N 
ATOM      3  H   ILE A   6      14.123  24.221  27.244  0.00  0.00    +0.150 HD
ATOM      4  O   ILE A   5      13.996  21.055  27.331  0.00  0.00    -0.273 OA
ENDROOT
BRANCH   1   5
ATOM      5  CA  ILE A   5      15.784  22.481  26.574  0.00  0.00    +0.149 C 
BRANCH   5   8
ATOM      6  C   ASN A   4      17.904  22.249  27.717  0.00  0.00    +0.241 C 
ATOM      7  O   ASN A   4      18.110  23.462  27.637  0.00  0.00    -0.273 OA
ATOM      8  N   ILE A   5      16.817  21.674  27.214  0.00  0.00    -0.297 N 
ATOM      9  H   ILE A   5      16.702  20.642  27.277  0.00  0.00    +0.150 HD
BRANCH   6  10
ATOM     10  CA  ASN A   4      18.928  21.328  28.362  0.00  0.00    +0.158 C 
BRANCH  10  12
ATOM     11  C   VAL A   3      20.471  21.334  26.481  0.00  0.00    +0.241 C 
ATOM     12  N   ASN A   4      20.248  21.553  27.775  0.00  0.00    -0.297 N 
ATOM     13  H   ASN A   4      21.025  21.890  28.378  0.00  0.00    +0.150 HD
ATOM     14  O   VAL A   3      19.645  20.785  25.740  0.00  0.00    -0.273 OA
BRANCH  11  15
ATOM     15  CA  VAL A   3      21.833  21.779  25.936  0.00  0.00    +0.149 C 
BRANCH  15  18
ATOM     16  C   PRO A   2      23.488  20.637  24.528  0.00  0.00    +0.241 C 
ATOM     17  O   PRO A   2      24.450  21.170  25.079  0.00  0.00    -0.273 OA
ATOM     18  N   VAL A   3      22.224  20.874  24.862  0.00  0.00    -0.297 N 
ATOM     19  H   VAL A   3      21.474  20.388  24.329  0.00  0.00    +0.150 HD
BRANCH  16  23
ATOM     20  C   THR A   1      22.295  17.778  24.167  0.00  0.00    +0.244 C 
ATOM     21  O   THR A   1      22.918  17.687  25.226  0.00  0.00    -0.273 OA
ATOM     22  N   PRO A   2      22.615  18.679  23.213  0.00  0.00    -0.272 N 
ATOM     23  CA  PRO A   2      23.712  19.645  23.388  0.00  0.00    +0.152 C 
ATOM     24  CB  PRO A   2      23.744  20.392  22.049  0.00  0.00    +0.031 C 
ATOM     25  CG  PRO A   2      23.062  19.476  21.089  0.00  0.00    +0.024 C 
ATOM     26  CD  PRO A   2      21.984  18.823  21.889  0.00  0.00    +0.094 C 
BRANCH  20  27
ATOM     27  CA  THR A   1      21.124  16.822  23.883  0.00  0.00    +0.172 C 
BRANCH  27  28
ATOM     28  N   THR A   1      21.448  15.465  24.335  0.00  0.00    -0.236 NA
ATOM     29  H   THR A   1      21.030  15.121  25.223  0.00  0.00    +0.142 HD
ENDBRANCH  27  28
BRANCH  27  30
ATOM     30  CB  THR A   1      19.800  17.344  24.526  0.00  0.00    +0.135 C 
ATOM     31  CG2 THR A   1      19.885  17.391  26.061  0.00  0.00    +0.034 C 
BRANCH  30  32
ATOM     32  OG1 THR A   1      19.486  18.650  24.023  0.00  0.00    -0.383 OA
ATOM     33  HG1 THR A   1      20.222  19.274  24.245  0.00  0.00    +0.210 HD
ENDBRANCH  30  32
ENDBRANCH  27  30
ENDBRANCH  20  27
ENDBRANCH  16  23
ENDBRANCH  15  18
BRANCH  15  34
ATOM     34  CB  VAL A   3      21.800  23.270  25.449  0.00  0.00    +0.027 C 
ATOM     35  CG2 VAL A   3      21.527  24.235  26.605  0.00  0.00    +0.002 C 
ATOM     36  CG1 VAL A   3      20.773  23.470  24.374  0.00  0.00    +0.002 C 
ENDBRANCH  15  34
ENDBRANCH  11  15
ENDBRANCH  10  12
BRANCH  10  37
ATOM     37  CB  ASN A   4      18.955  21.536  29.872  0.00  0.00    +0.114 C 
BRANCH  37  38
ATOM     38  CG  ASN A   4      19.992  20.673  30.562  0.00  0.00    +0.222 C 
ATOM     39  ND2 ASN A   4      20.646  21.239  31.570  0.00  0.00    -0.329 N 
ATOM     40 HD21 ASN A   4      21.374  20.703  32.084  0.00  0.00    +0.145 HD
ATOM     41 HD22 ASN A   4      20.430  22.218  31.846  0.00  0.00    +0.145 HD
ATOM     42  OD1 ASN A   4      20.208  19.513  30.192  0.00  0.00    -0.275 OA
ENDBRANCH  37  38
ENDBRANCH  10  37
ENDBRANCH   6  10
ENDBRANCH   5   8
BRANCH   5  43
ATOM     43  CB  ILE A   5      15.793  22.368  25.025  0.00  0.00    +0.027 C 
ATOM     44  CG2 ILE A   5      16.997  23.120  24.435  0.00  0.00    +0.002 C 
BRANCH  43  45
ATOM     45  CG1 ILE A   5      15.766  20.905  24.572  0.00  0.00    +0.002 C 
ATOM     46  CD1 ILE A   5      15.636  20.744  23.077  0.00  0.00    +0.000 C 
ENDBRANCH  43  45
ENDBRANCH   5  43
ENDBRANCH   1   5
BRANCH   2  47
ATOM     47  CA  ILE A   6      12.304  23.242  27.859  0.00  0.00    +0.149 C 
BRANCH  47  48
ATOM     48  C   ILE A   6      11.448  23.462  26.624  0.00  0.00    +0.241 C 
ATOM     49  N   GLY A   7      10.759  22.407  26.196  0.00  0.00    -0.295 N 
ATOM     50  H   GLY A   7      10.819  21.518  26.732  0.00  0.00    +0.150 HD
ATOM     51  O   ILE A   6      11.442  24.557  26.056  0.00  0.00    -0.273 OA
BRANCH  49  52
ATOM     52  CA  GLY A   7       9.922  22.453  25.002  0.00  0.00    +0.176 C 
BRANCH  52  53
ATOM     53  C   GLY A   7       8.481  22.796  25.314  0.00  0.00    +0.243 C 
ATOM     54  O   GLY A   7       8.132  23.067  26.468  0.00  0.00    -0.273 OA
ATOM     55  N   ARG A   8       7.641  22.760  24.283  0.00  0.00    -0.297 N 
ATOM     56  H   ARG A   8       7.978  22.381  23.375  0.00  0.00    +0.150 HD
BRANCH  55  57
ATOM     57  CA  ARG A   8       6.260  23.235  24.380  0.00  0.00    +0.149 C 
BRANCH  57  58
ATOM     58  C   ARG A   8       5.389  22.485  25.390  0.00  0.00    +0.241 C 
ATOM     59  O   ARG A   8       4.449  23.063  25.940  0.00  0.00    -0.273 OA
ATOM     60  N   ASN A   9       5.700  21.212  25.638  0.00  0.00    -0.298 N 
ATOM     61  H   ASN A   9       6.500  20.774  25.138  0.00  0.00    +0.150 HD
BRANCH  60  62
ATOM     62  CA  ASN A   9       4.932  20.420  26.604  0.00  0.00    +0.146 C 
BRANCH  62  63
ATOM     63  C   ASN A   9       4.922  21.029  28.012  0.00  0.00    +0.227 C 
ATOM     64  O   ASN A   9       3.910  20.946  28.721  0.00  0.00    -0.286 OA
ENDBRANCH  62  63
BRANCH  62  65
ATOM     65  CB  ASN A   9       5.394  18.950  26.631  0.00  0.00    +0.112 C 
BRANCH  65  66
ATOM     66  CG  ASN A   9       6.713  18.752  27.358  0.00  0.00    +0.222 C 
ATOM     67  ND2 ASN A   9       6.701  17.894  28.373  0.00  0.00    -0.329 N 
ATOM     68 HD21 ASN A   9       7.574  17.708  28.907  0.00  0.00    +0.145 HD
ATOM     69 HD22 ASN A   9       5.819  17.409  28.633  0.00  0.00    +0.145 HD
ATOM     70  OD1 ASN A   9       7.729  19.351  27.010  0.00  0.00    -0.275 OA
ENDBRANCH  65  66
ENDBRANCH  62  65
ENDBRANCH  60  62
ENDBRANCH  57  58
BRANCH  57  71
ATOM     71  CB  ARG A   8       5.588  23.253  23.001  0.00  0.00    +0.033 C 
BRANCH  71  72
ATOM     72  CG  ARG A   8       6.174  24.287  22.033  0.00  0.00    +0.045 C 
BRANCH  72  73
ATOM     73  CD  ARG A   8       5.375  24.361  20.729  0.00  0.00    +0.174 C 
BRANCH  73  74
ATOM     74  NE  ARG A   8       5.400  23.096  19.993  0.00  0.00    -0.265 N 
ATOM     75  CZ  ARG A   8       4.410  22.202  19.980  0.00  0.00    +0.342 C 
ATOM     76  NH2 ARG A   8       3.294  22.424  20.667  0.00  0.00    -0.292 N 
ATOM     77 HH21 ARG A   8       3.189  23.299  21.219  0.00  0.00    +0.255 HD
ATOM     78 HH22 ARG A   8       2.526  21.723  20.652  0.00  0.00    +0.255 HD
ATOM     79  NH1 ARG A   8       4.537  21.078  19.281  0.00  0.00    -0.292 N 
ATOM     80 HH11 ARG A   8       3.765  20.382  19.271  0.00  0.00    +0.255 HD
ATOM     81 HH12 ARG A   8       5.409  20.895  18.744  0.00  0.00    +0.255 HD
ATOM     82  HE  ARG A   8       6.253  22.878  19.439  0.00  0.00    +0.259 HD
ENDBRANCH  73  74
ENDBRANCH  72  73
ENDBRANCH  71  72
ENDBRANCH  57  71
ENDBRANCH  55  57
ENDBRANCH  52  53
ENDBRANCH  49  52
ENDBRANCH  47  48
BRANCH  47  83
ATOM     83  CB  ILE A   6      12.015  24.324  28.938  0.00  0.00    +0.027 C 
ATOM     84  CG2 ILE A   6      10.570  24.217  29.455  0.00  0.00    +0.002 C 
BRANCH  83  85
ATOM     85  CG1 ILE A   6      13.044  24.262  30.086  0.00  0.00    +0.002 C 
ATOM     86  CD1 ILE A   6      13.203  22.884  30.764  0.00  0.00    +0.000 C 
ENDBRANCH  83  85
ENDBRANCH  47  83
ENDBRANCH   2  47
TORSDOF 32
REMARK  Name = ../refined-set-2016/3kdc/3kdc_pocket.pdb
REMARK  240 active torsions:
REMARK  status: ('A' for Active; 'I' for Inactive)
REMARK    1  A    between atoms: _1  and  _3
REMARK    2  A    between atoms: _3  and  _4
REMARK    3  A    between atoms: _3  and  _6
REMARK    4  A    between atoms: _6  and  _7
REMARK    5  A    between atoms: _7  and  _8
REMARK    6  A    between atoms: _8  and  _9
REMARK    7  A    between atoms: _18  and  _20
REMARK    8  A    between atoms: _20  and  _21
REMARK    9  A    between atoms: _20  and  _23
REMARK   10  A    between atoms: _23  and  _24
REMARK   11  A    between atoms: _27  and  _29
REMARK   12  A    between atoms: _29  and  _30
REMARK   13  A    between atoms: _29  and  _32
REMARK   14  A    between atoms: _32  and  _33
REMARK   15  A    between atoms: _36  and  _38
REMARK   16  A    between atoms: _38  and  _39
REMARK   17  A    between atoms: _38  and  _41
REMARK   18  A    between atoms: _41  and  _42
REMARK   19  A    between atoms: _45  and  _47
REMARK   20  A    between atoms: _47  and  _48
REMARK   21  A    between atoms: _47  and  _50
REMARK   22  A    between atoms: _50  and  _51
REMARK   23  A    between atoms: _54  and  _56
REMARK   24  A    between atoms: _56  and  _57
REMARK   25  A    between atoms: _59  and  _61
REMARK   26  A    between atoms: _61  and  _62
REMARK   27  A    between atoms: _65  and  _67
REMARK   28  A    between atoms: _67  and  _68
REMARK   29  A    between atoms: _67  and  _70
REMARK   30  A    between atoms: _70  and  _71
REMARK   31  A    between atoms: _74  and  _76
REMARK   32  A    between atoms: _76  and  _77
REMARK   33  A    between atoms: _76  and  _79
REMARK   34  A    between atoms: _79  and  _80
REMARK   35  A    between atoms: _83  and  _85
REMARK   36  A    between atoms: _85  and  _86
REMARK   37  A    between atoms: _85  and  _88
REMARK   38  A    between atoms: _88  and  _89
REMARK   39  A    between atoms: _92  and  _94
REMARK   40  A    between atoms: _94  and  _95
REMARK   41  A    between atoms: _94  and  _97
REMARK   42  A    between atoms: _100  and  _102
REMARK   43  A    between atoms: _102  and  _103
REMARK   44  A    between atoms: _102  and  _105
REMARK   45  A    between atoms: _105  and  _106
REMARK   46  A    between atoms: _109  and  _111
REMARK   47  A    between atoms: _111  and  _112
REMARK   48  A    between atoms: _111  and  _114
REMARK   49  A    between atoms: _114  and  _115
REMARK   50  A    between atoms: _115  and  _116
REMARK   51  A    between atoms: _116  and  _117
REMARK   52  A    between atoms: _117  and  _118
REMARK   53  A    between atoms: _122  and  _124
REMARK   54  A    between atoms: _124  and  _125
REMARK   55  A    between atoms: _124  and  _127
REMARK   56  A    between atoms: _127  and  _128
REMARK   57  A    between atoms: _128  and  _129
REMARK   58  A    between atoms: _131  and  _133
REMARK   59  A    between atoms: _133  and  _134
REMARK   60  A    between atoms: _133  and  _136
REMARK   61  A    between atoms: _136  and  _137
REMARK   62  A    between atoms: _140  and  _142
REMARK   63  A    between atoms: _142  and  _143
REMARK   64  A    between atoms: _145  and  _147
REMARK   65  A    between atoms: _147  and  _148
REMARK   66  A    between atoms: _150  and  _152
REMARK   67  A    between atoms: _152  and  _153
REMARK   68  A    between atoms: _152  and  _155
REMARK   69  A    between atoms: _155  and  _156
REMARK   70  A    between atoms: _159  and  _161
REMARK   71  A    between atoms: _161  and  _162
REMARK   72  A    between atoms: _164  and  _166
REMARK   73  A    between atoms: _166  and  _167
REMARK   74  A    between atoms: _169  and  _171
REMARK   75  A    between atoms: _171  and  _172
REMARK   76  A    between atoms: _171  and  _174
REMARK   77  A    between atoms: _174  and  _175
REMARK   78  A    between atoms: _181  and  _183
REMARK   79  A    between atoms: _183  and  _184
REMARK   80  A    between atoms: _183  and  _186
REMARK   81  A    between atoms: _186  and  _187
REMARK   82  A    between atoms: _190  and  _192
REMARK   83  A    between atoms: _192  and  _193
REMARK   84  A    between atoms: _192  and  _195
REMARK   85  A    between atoms: _198  and  _200
REMARK   86  A    between atoms: _200  and  _201
REMARK   87  A    between atoms: _200  and  _203
REMARK   88  A    between atoms: _203  and  _204
REMARK   89  A    between atoms: _207  and  _209
REMARK   90  A    between atoms: _209  and  _210
REMARK   91  A    between atoms: _209  and  _212
REMARK   92  A    between atoms: _212  and  _213
REMARK   93  A    between atoms: _217  and  _218
REMARK   94  A    between atoms: _223  and  _225
REMARK   95  A    between atoms: _225  and  _226
REMARK   96  A    between atoms: _225  and  _228
REMARK   97  A    between atoms: _231  and  _233
REMARK   98  A    between atoms: _233  and  _234
REMARK   99  A    between atoms: _233  and  _236
REMARK  100  A    between atoms: _236  and  _237
REMARK  101  A    between atoms: _242  and  _244
REMARK  102  A    between atoms: _244  and  _245
REMARK  103  A    between atoms: _244  and  _247
REMARK  104  A    between atoms: _247  and  _248
REMARK  105  A    between atoms: _251  and  _253
REMARK  106  A    between atoms: _253  and  _254
REMARK  107  A    between atoms: _253  and  _256
REMARK  108  A    between atoms: _256  and  _257
REMARK  109  A    between atoms: _260  and  _262
REMARK  110  A    between atoms: _262  and  _263
REMARK  111  A    between atoms: _265  and  _267
REMARK  112  A    between atoms: _267  and  _268
REMARK  113  A    between atoms: _267  and  _270
REMARK  114  A    between atoms: _270  and  _271
REMARK  115  A    between atoms: _271  and  _272
REMARK  116  A    between atoms: _272  and  _273
REMARK  117  A    between atoms: _282  and  _284
REMARK  118  A    between atoms: _284  and  _285
REMARK  119  A    between atoms: _284  and  _287
REMARK  120  A    between atoms: _287  and  _288
REMARK  121  A    between atoms: _293  and  _295
REMARK  122  A    between atoms: _295  and  _296
REMARK  123  A    between atoms: _295  and  _298
REMARK  124  A    between atoms: _298  and  _299
REMARK  125  A    between atoms: _299  and  _300
REMARK  126  A    between atoms: _300  and  _301
REMARK  127  A    between atoms: _310  and  _312
REMARK  128  A    between atoms: _312  and  _313
REMARK  129  A    between atoms: _312  and  _315
REMARK  130  A    between atoms: _315  and  _316
REMARK  131  A    between atoms: _319  and  _321
REMARK  132  A    between atoms: _321  and  _322
REMARK  133  A    between atoms: _321  and  _324
REMARK  134  A    between atoms: _324  and  _325
REMARK  135  A    between atoms: _328  and  _330
REMARK  136  A    between atoms: _330  and  _331
REMARK  137  A    between atoms: _330  and  _333
REMARK  138  A    between atoms: _333  and  _334
REMARK  139  A    between atoms: _337  and  _339
REMARK  140  A    between atoms: _339  and  _340
REMARK  141  A    between atoms: _339  and  _342
REMARK  142  A    between atoms: _342  and  _343
REMARK  143  A    between atoms: _346  and  _348
REMARK  144  A    between atoms: _348  and  _349
REMARK  145  A    between atoms: _348  and  _351
REMARK  146  A    between atoms: _351  and  _352
REMARK  147  A    between atoms: _355  and  _357
REMARK  148  A    between atoms: _357  and  _358
REMARK  149  A    between atoms: _360  and  _362
REMARK  150  A    between atoms: _362  and  _363
REMARK  151  A    between atoms: _366  and  _368
REMARK  152  A    between atoms: _368  and  _369
REMARK  153  A    between atoms: _368  and  _371
REMARK  154  A    between atoms: _371  and  _372
REMARK  155  A    between atoms: _375  and  _377
REMARK  156  A    between atoms: _377  and  _378
REMARK  157  A    between atoms: _377  and  _380
REMARK  158  A    between atoms: _380  and  _381
REMARK  159  A    between atoms: _384  and  _386
REMARK  160  A    between atoms: _386  and  _387
REMARK  161  A    between atoms: _386  and  _389
REMARK  162  A    between atoms: _389  and  _390
REMARK  163  A    between atoms: _393  and  _395
REMARK  164  A    between atoms: _395  and  _396
REMARK  165  A    between atoms: _395  and  _398
REMARK  166  A    between atoms: _401  and  _403
REMARK  167  A    between atoms: _403  and  _404
REMARK  168  A    between atoms: _403  and  _406
REMARK  169  A    between atoms: _406  and  _407
REMARK  170  A    between atoms: _407  and  _408
REMARK  171  A    between atoms: _408  and  _409
REMARK  172  A    between atoms: _409  and  _410
REMARK  173  A    between atoms: _414  and  _416
REMARK  174  A    between atoms: _416  and  _417
REMARK  175  A    between atoms: _416  and  _419
REMARK  176  A    between atoms: _419  and  _420
REMARK  177  A    between atoms: _420  and  _421
REMARK  178  A    between atoms: _423  and  _425
REMARK  179  A    between atoms: _425  and  _426
REMARK  180  A    between atoms: _425  and  _428
REMARK  181  A    between atoms: _428  and  _429
REMARK  182  A    between atoms: _432  and  _434
REMARK  183  A    between atoms: _434  and  _435
REMARK  184  A    between atoms: _437  and  _439
REMARK  185  A    between atoms: _439  and  _440
REMARK  186  A    between atoms: _442  and  _444
REMARK  187  A    between atoms: _444  and  _445
REMARK  188  A    between atoms: _444  and  _447
REMARK  189  A    between atoms: _447  and  _448
REMARK  190  A    between atoms: _451  and  _453
REMARK  191  A    between atoms: _453  and  _454
REMARK  192  A    between atoms: _456  and  _458
REMARK  193  A    between atoms: _458  and  _459
REMARK  194  A    between atoms: _461  and  _463
REMARK  195  A    between atoms: _463  and  _464
REMARK  196  A    between atoms: _463  and  _466
REMARK  197  A    between atoms: _466  and  _467
REMARK  198  A    between atoms: _473  and  _475
REMARK  199  A    between atoms: _475  and  _476
REMARK  200  A    between atoms: _475  and  _478
REMARK  201  A    between atoms: _478  and  _479
REMARK  202  A    between atoms: _482  and  _484
REMARK  203  A    between atoms: _484  and  _485
REMARK  204  A    between atoms: _484  and  _487
REMARK  205  A    between atoms: _490  and  _492
REMARK  206  A    between atoms: _492  and  _493
REMARK  207  A    between atoms: _492  and  _495
REMARK  208  A    between atoms: _495  and  _496
REMARK  209  A    between atoms: _499  and  _501
REMARK  210  A    between atoms: _501  and  _502
REMARK  211  A    between atoms: _501  and  _504
REMARK  212  A    between atoms: _504  and  _505
REMARK  213  A    between atoms: _509  and  _510
REMARK  214  A    between atoms: _515  and  _517
REMARK  215  A    between atoms: _517  and  _518
REMARK  216  A    between atoms: _517  and  _520
REMARK  217  A    between atoms: _523  and  _525
REMARK  218  A    between atoms: _525  and  _526
REMARK  219  A    between atoms: _525  and  _528
REMARK  220  A    between atoms: _528  and  _529
REMARK  221  A    between atoms: _534  and  _536
REMARK  222  A    between atoms: _536  and  _537
REMARK  223  A    between atoms: _536  and  _539
REMARK  224  A    between atoms: _539  and  _540
REMARK  225  A    between atoms: _543  and  _545
REMARK  226  A    between atoms: _545  and  _546
REMARK  227  A    between atoms: _545  and  _548
REMARK  228  A    between atoms: _548  and  _549
REMARK  229  A    between atoms: _552  and  _554
REMARK  230  A    between atoms: _554  and  _555
REMARK  231  A    between atoms: _557  and  _559
REMARK  232  A    between atoms: _559  and  _560
REMARK  233  A    between atoms: _559  and  _562
REMARK  234  A    between atoms: _562  and  _563
REMARK  235  A    between atoms: _563  and  _564
REMARK  236  A    between atoms: _564  and  _565
REMARK  237  A    between atoms: _574  and  _576
REMARK  238  A    between atoms: _576  and  _577
REMARK  239  A    between atoms: _576  and  _579
REMARK  240  A    between atoms: _579  and  _580
REMARK                            x       y       z     vdW  Elec       q    Type
REMARK                         _______ _______ _______ _____ _____    ______ ____
ROOT
ATOM      1  O   HOH     1      18.580  30.425  21.641  0.00  0.00    +0.000 OA
ENDROOT
TORSDOF 0
REMARK  Name = ../refined-set-2016/3kdc/3kdc_pocket.pdb
REMARK  240 active torsions:
REMARK  status: ('A' for Active; 'I' for Inactive)
REMARK    1  A    between atoms: _1  and  _3
REMARK    2  A    between atoms: _3  and  _4
REMARK    3  A    between atoms: _3  and  _6
REMARK    4  A    between atoms: _6  and  _7
REMARK    5  A    between atoms: _7  and  _8
REMARK    6  A    between atoms: _8  and  _9
REMARK    7  A    between atoms: _18  and  _20
REMARK    8  A    between atoms: _20  and  _21
REMARK    9  A    between atoms: _20  and  _23
REMARK   10  A    between atoms: _23  and  _24
REMARK   11  A    between atoms: _27  and  _29
REMARK   12  A    between atoms: _29  and  _30
REMARK   13  A    between atoms: _29  and  _32
REMARK   14  A    between atoms: _32  and  _33
REMARK   15  A    between atoms: _36  and  _38
REMARK   16  A    between atoms: _38  and  _39
REMARK   17  A    between atoms: _38  and  _41
REMARK   18  A    between atoms: _41  and  _42
REMARK   19  A    between atoms: _45  and  _47
REMARK   20  A    between atoms: _47  and  _48
REMARK   21  A    between atoms: _47  and  _50
REMARK   22  A    between atoms: _50  and  _51
REMARK   23  A    between atoms: _54  and  _56
REMARK   24  A    between atoms: _56  and  _57
REMARK   25  A    between atoms: _59  and  _61
REMARK   26  A    between atoms: _61  and  _62
REMARK   27  A    between atoms: _65  and  _67
REMARK   28  A    between atoms: _67  and  _68
REMARK   29  A    between atoms: _67  and  _70
REMARK   30  A    between atoms: _70  and  _71
REMARK   31  A    between atoms: _74  and  _76
REMARK   32  A    between atoms: _76  and  _77
REMARK   33  A    between atoms: _76  and  _79
REMARK   34  A    between atoms: _79  and  _80
REMARK   35  A    between atoms: _83  and  _85
REMARK   36  A    between atoms: _85  and  _86
REMARK   37  A    between atoms: _85  and  _88
REMARK   38  A    between atoms: _88  and  _89
REMARK   39  A    between atoms: _92  and  _94
REMARK   40  A    between atoms: _94  and  _95
REMARK   41  A    between atoms: _94  and  _97
REMARK   42  A    between atoms: _100  and  _102
REMARK   43  A    between atoms: _102  and  _103
REMARK   44  A    between atoms: _102  and  _105
REMARK   45  A    between atoms: _105  and  _106
REMARK   46  A    between atoms: _109  and  _111
REMARK   47  A    between atoms: _111  and  _112
REMARK   48  A    between atoms: _111  and  _114
REMARK   49  A    between atoms: _114  and  _115
REMARK   50  A    between atoms: _115  and  _116
REMARK   51  A    between atoms: _116  and  _117
REMARK   52  A    between atoms: _117  and  _118
REMARK   53  A    between atoms: _122  and  _124
REMARK   54  A    between atoms: _124  and  _125
REMARK   55  A    between atoms: _124  and  _127
REMARK   56  A    between atoms: _127  and  _128
REMARK   57  A    between atoms: _128  and  _129
REMARK   58  A    between atoms: _131  and  _133
REMARK   59  A    between atoms: _133  and  _134
REMARK   60  A    between atoms: _133  and  _136
REMARK   61  A    between atoms: _136  and  _137
REMARK   62  A    between atoms: _140  and  _142
REMARK   63  A    between atoms: _142  and  _143
REMARK   64  A    between atoms: _145  and  _147
REMARK   65  A    between atoms: _147  and  _148
REMARK   66  A    between atoms: _150  and  _152
REMARK   67  A    between atoms: _152  and  _153
REMARK   68  A    between atoms: _152  and  _155
REMARK   69  A    between atoms: _155  and  _156
REMARK   70  A    between atoms: _159  and  _161
REMARK   71  A    between atoms: _161  and  _162
REMARK   72  A    between atoms: _164  and  _166
REMARK   73  A    between atoms: _166  and  _167
REMARK   74  A    between atoms: _169  and  _171
REMARK   75  A    between atoms: _171  and  _172
REMARK   76  A    between atoms: _171  and  _174
REMARK   77  A    between atoms: _174  and  _175
REMARK   78  A    between atoms: _181  and  _183
REMARK   79  A    between atoms: _183  and  _184
REMARK   80  A    between atoms: _183  and  _186
REMARK   81  A    between atoms: _186  and  _187
REMARK   82  A    between atoms: _190  and  _192
REMARK   83  A    between atoms: _192  and  _193
REMARK   84  A    between atoms: _192  and  _195
REMARK   85  A    between atoms: _198  and  _200
REMARK   86  A    between atoms: _200  and  _201
REMARK   87  A    between atoms: _200  and  _203
REMARK   88  A    between atoms: _203  and  _204
REMARK   89  A    between atoms: _207  and  _209
REMARK   90  A    between atoms: _209  and  _210
REMARK   91  A    between atoms: _209  and  _212
REMARK   92  A    between atoms: _212  and  _213
REMARK   93  A    between atoms: _217  and  _218
REMARK   94  A    between atoms: _223  and  _225
REMARK   95  A    between atoms: _225  and  _226
REMARK   96  A    between atoms: _225  and  _228
REMARK   97  A    between atoms: _231  and  _233
REMARK   98  A    between atoms: _233  and  _234
REMARK   99  A    between atoms: _233  and  _236
REMARK  100  A    between atoms: _236  and  _237
REMARK  101  A    between atoms: _242  and  _244
REMARK  102  A    between atoms: _244  and  _245
REMARK  103  A    between atoms: _244  and  _247
REMARK  104  A    between atoms: _247  and  _248
REMARK  105  A    between atoms: _251  and  _253
REMARK  106  A    between atoms: _253  and  _254
REMARK  107  A    between atoms: _253  and  _256
REMARK  108  A    between atoms: _256  and  _257
REMARK  109  A    between atoms: _260  and  _262
REMARK  110  A    between atoms: _262  and  _263
REMARK  111  A    between atoms: _265  and  _267
REMARK  112  A    between atoms: _267  and  _268
REMARK  113  A    between atoms: _267  and  _270
REMARK  114  A    between atoms: _270  and  _271
REMARK  115  A    between atoms: _271  and  _272
REMARK  116  A    between atoms: _272  and  _273
REMARK  117  A    between atoms: _282  and  _284
REMARK  118  A    between atoms: _284  and  _285
REMARK  119  A    between atoms: _284  and  _287
REMARK  120  A    between atoms: _287  and  _288
REMARK  121  A    between atoms: _293  and  _295
REMARK  122  A    between atoms: _295  and  _296
REMARK  123  A    between atoms: _295  and  _298
REMARK  124  A    between atoms: _298  and  _299
REMARK  125  A    between atoms: _299  and  _300
REMARK  126  A    between atoms: _300  and  _301
REMARK  127  A    between atoms: _310  and  _312
REMARK  128  A    between atoms: _312  and  _313
REMARK  129  A    between atoms: _312  and  _315
REMARK  130  A    between atoms: _315  and  _316
REMARK  131  A    between atoms: _319  and  _321
REMARK  132  A    between atoms: _321  and  _322
REMARK  133  A    between atoms: _321  and  _324
REMARK  134  A    between atoms: _324  and  _325
REMARK  135  A    between atoms: _328  and  _330
REMARK  136  A    between atoms: _330  and  _331
REMARK  137  A    between atoms: _330  and  _333
REMARK  138  A    between atoms: _333  and  _334
REMARK  139  A    between atoms: _337  and  _339
REMARK  140  A    between atoms: _339  and  _340
REMARK  141  A    between atoms: _339  and  _342
REMARK  142  A    between atoms: _342  and  _343
REMARK  143  A    between atoms: _346  and  _348
REMARK  144  A    between atoms: _348  and  _349
REMARK  145  A    between atoms: _348  and  _351
REMARK  146  A    between atoms: _351  and  _352
REMARK  147  A    between atoms: _355  and  _357
REMARK  148  A    between atoms: _357  and  _358
REMARK  149  A    between atoms: _360  and  _362
REMARK  150  A    between atoms: _362  and  _363
REMARK  151  A    between atoms: _366  and  _368
REMARK  152  A    between atoms: _368  and  _369
REMARK  153  A    between atoms: _368  and  _371
REMARK  154  A    between atoms: _371  and  _372
REMARK  155  A    between atoms: _375  and  _377
REMARK  156  A    between atoms: _377  and  _378
REMARK  157  A    between atoms: _377  and  _380
REMARK  158  A    between atoms: _380  and  _381
REMARK  159  A    between atoms: _384  and  _386
REMARK  160  A    between atoms: _386  and  _387
REMARK  161  A    between atoms: _386  and  _389
REMARK  162  A    between atoms: _389  and  _390
REMARK  163  A    between atoms: _393  and  _395
REMARK  164  A    between atoms: _395  and  _396
REMARK  165  A    between atoms: _395  and  _398
REMARK  166  A    between atoms: _401  and  _403
REMARK  167  A    between atoms: _403  and  _404
REMARK  168  A    between atoms: _403  and  _406
REMARK  169  A    between atoms: _406  and  _407
REMARK  170  A    between atoms: _407  and  _408
REMARK  171  A    between atoms: _408  and  _409
REMARK  172  A    between atoms: _409  and  _410
REMARK  173  A    between atoms: _414  and  _416
REMARK  174  A    between atoms: _416  and  _417
REMARK  175  A    between atoms: _416  and  _419
REMARK  176  A    between atoms: _419  and  _420
REMARK  177  A    between atoms: _420  and  _421
REMARK  178  A    between atoms: _423  and  _425
REMARK  179  A    between atoms: _425  and  _426
REMARK  180  A    between atoms: _425  and  _428
REMARK  181  A    between atoms: _428  and  _429
REMARK  182  A    between atoms: _432  and  _434
REMARK  183  A    between atoms: _434  and  _435
REMARK  184  A    between atoms: _437  and  _439
REMARK  185  A    between atoms: _439  and  _440
REMARK  186  A    between atoms: _442  and  _444
REMARK  187  A    between atoms: _444  and  _445
REMARK  188  A    between atoms: _444  and  _447
REMARK  189  A    between atoms: _447  and  _448
REMARK  190  A    between atoms: _451  and  _453
REMARK  191  A    between atoms: _453  and  _454
REMARK  192  A    between atoms: _456  and  _458
REMARK  193  A    between atoms: _458  and  _459
REMARK  194  A    between atoms: _461  and  _463
REMARK  195  A    between atoms: _463  and  _464
REMARK  196  A    between atoms: _463  and  _466
REMARK  197  A    between atoms: _466  and  _467
REMARK  198  A    between atoms: _473  and  _475
REMARK  199  A    between atoms: _475  and  _476
REMARK  200  A    between atoms: _475  and  _478
REMARK  201  A    between atoms: _478  and  _479
REMARK  202  A    between atoms: _482  and  _484
REMARK  203  A    between atoms: _484  and  _485
REMARK  204  A    between atoms: _484  and  _487
REMARK  205  A    between atoms: _490  and  _492
REMARK  206  A    between atoms: _492  and  _493
REMARK  207  A    between atoms: _492  and  _495
REMARK  208  A    between atoms: _495  and  _496
REMARK  209  A    between atoms: _499  and  _501
REMARK  210  A    between atoms: _501  and  _502
REMARK  211  A    between atoms: _501  and  _504
REMARK  212  A    between atoms: _504  and  _505
REMARK  213  A    between atoms: _509  and  _510
REMARK  214  A    between atoms: _515  and  _517
REMARK  215  A    between atoms: _517  and  _518
REMARK  216  A    between atoms: _517  and  _520
REMARK  217  A    between atoms: _523  and  _525
REMARK  218  A    between atoms: _525  and  _526
REMARK  219  A    between atoms: _525  and  _528
REMARK  220  A    between atoms: _528  and  _529
REMARK  221  A    between atoms: _534  and  _536
REMARK  222  A    between atoms: _536  and  _537
REMARK  223  A    between atoms: _536  and  _539
REMARK  224  A    between atoms: _539  and  _540
REMARK  225  A    between atoms: _543  and  _545
REMARK  226  A    between atoms: _545  and  _546
REMARK  227  A    between atoms: _545  and  _548
REMARK  228  A    between atoms: _548  and  _549
REMARK  229  A    between atoms: _552  and  _554
REMARK  230  A    between atoms: _554  and  _555
REMARK  231  A    between atoms: _557  and  _559
REMARK  232  A    between atoms: _559  and  _560
REMARK  233  A    between atoms: _559  and  _562
REMARK  234  A    between atoms: _562  and  _563
REMARK  235  A    between atoms: _563  and  _564
REMARK  236  A    between atoms: _564  and  _565
REMARK  237  A    between atoms: _574  and  _576
REMARK  238  A    between atoms: _576  and  _577
REMARK  239  A    between atoms: _576  and  _579
REMARK  240  A    between atoms: _579  and  _580
REMARK                            x       y       z     vdW  Elec       q    Type
REMARK                         _______ _______ _______ _____ _____    ______ ____
ROOT
ATOM      1  O   HOH     1      20.600  33.503  10.240  0.00  0.00    +0.000 OA
ENDROOT
TORSDOF 0
REMARK  Name = ../refined-set-2016/3kdc/3kdc_pocket.pdb
REMARK  240 active torsions:
REMARK  status: ('A' for Active; 'I' for Inactive)
REMARK    1  A    between atoms: _1  and  _3
REMARK    2  A    between atoms: _3  and  _4
REMARK    3  A    between atoms: _3  and  _6
REMARK    4  A    between atoms: _6  and  _7
REMARK    5  A    between atoms: _7  and  _8
REMARK    6  A    between atoms: _8  and  _9
REMARK    7  A    between atoms: _18  and  _20
REMARK    8  A    between atoms: _20  and  _21
REMARK    9  A    between atoms: _20  and  _23
REMARK   10  A    between atoms: _23  and  _24
REMARK   11  A    between atoms: _27  and  _29
REMARK   12  A    between atoms: _29  and  _30
REMARK   13  A    between atoms: _29  and  _32
REMARK   14  A    between atoms: _32  and  _33
REMARK   15  A    between atoms: _36  and  _38
REMARK   16  A    between atoms: _38  and  _39
REMARK   17  A    between atoms: _38  and  _41
REMARK   18  A    between atoms: _41  and  _42
REMARK   19  A    between atoms: _45  and  _47
REMARK   20  A    between atoms: _47  and  _48
REMARK   21  A    between atoms: _47  and  _50
REMARK   22  A    between atoms: _50  and  _51
REMARK   23  A    between atoms: _54  and  _56
REMARK   24  A    between atoms: _56  and  _57
REMARK   25  A    between atoms: _59  and  _61
REMARK   26  A    between atoms: _61  and  _62
REMARK   27  A    between atoms: _65  and  _67
REMARK   28  A    between atoms: _67  and  _68
REMARK   29  A    between atoms: _67  and  _70
REMARK   30  A    between atoms: _70  and  _71
REMARK   31  A    between atoms: _74  and  _76
REMARK   32  A    between atoms: _76  and  _77
REMARK   33  A    between atoms: _76  and  _79
REMARK   34  A    between atoms: _79  and  _80
REMARK   35  A    between atoms: _83  and  _85
REMARK   36  A    between atoms: _85  and  _86
REMARK   37  A    between atoms: _85  and  _88
REMARK   38  A    between atoms: _88  and  _89
REMARK   39  A    between atoms: _92  and  _94
REMARK   40  A    between atoms: _94  and  _95
REMARK   41  A    between atoms: _94  and  _97
REMARK   42  A    between atoms: _100  and  _102
REMARK   43  A    between atoms: _102  and  _103
REMARK   44  A    between atoms: _102  and  _105
REMARK   45  A    between atoms: _105  and  _106
REMARK   46  A    between atoms: _109  and  _111
REMARK   47  A    between atoms: _111  and  _112
REMARK   48  A    between atoms: _111  and  _114
REMARK   49  A    between atoms: _114  and  _115
REMARK   50  A    between atoms: _115  and  _116
REMARK   51  A    between atoms: _116  and  _117
REMARK   52  A    between atoms: _117  and  _118
REMARK   53  A    between atoms: _122  and  _124
REMARK   54  A    between atoms: _124  and  _125
REMARK   55  A    between atoms: _124  and  _127
REMARK   56  A    between atoms: _127  and  _128
REMARK   57  A    between atoms: _128  and  _129
REMARK   58  A    between atoms: _131  and  _133
REMARK   59  A    between atoms: _133  and  _134
REMARK   60  A    between atoms: _133  and  _136
REMARK   61  A    between atoms: _136  and  _137
REMARK   62  A    between atoms: _140  and  _142
REMARK   63  A    between atoms: _142  and  _143
REMARK   64  A    between atoms: _145  and  _147
REMARK   65  A    between atoms: _147  and  _148
REMARK   66  A    between atoms: _150  and  _152
REMARK   67  A    between atoms: _152  and  _153
REMARK   68  A    between atoms: _152  and  _155
REMARK   69  A    between atoms: _155  and  _156
REMARK   70  A    between atoms: _159  and  _161
REMARK   71  A    between atoms: _161  and  _162
REMARK   72  A    between atoms: _164  and  _166
REMARK   73  A    between atoms: _166  and  _167
REMARK   74  A    between atoms: _169  and  _171
REMARK   75  A    between atoms: _171  and  _172
REMARK   76  A    between atoms: _171  and  _174
REMARK   77  A    between atoms: _174  and  _175
REMARK   78  A    between atoms: _181  and  _183
REMARK   79  A    between atoms: _183  and  _184
REMARK   80  A    between atoms: _183  and  _186
REMARK   81  A    between atoms: _186  and  _187
REMARK   82  A    between atoms: _190  and  _192
REMARK   83  A    between atoms: _192  and  _193
REMARK   84  A    between atoms: _192  and  _195
REMARK   85  A    between atoms: _198  and  _200
REMARK   86  A    between atoms: _200  and  _201
REMARK   87  A    between atoms: _200  and  _203
REMARK   88  A    between atoms: _203  and  _204
REMARK   89  A    between atoms: _207  and  _209
REMARK   90  A    between atoms: _209  and  _210
REMARK   91  A    between atoms: _209  and  _212
REMARK   92  A    between atoms: _212  and  _213
REMARK   93  A    between atoms: _217  and  _218
REMARK   94  A    between atoms: _223  and  _225
REMARK   95  A    between atoms: _225  and  _226
REMARK   96  A    between atoms: _225  and  _228
REMARK   97  A    between atoms: _231  and  _233
REMARK   98  A    between atoms: _233  and  _234
REMARK   99  A    between atoms: _233  and  _236
REMARK  100  A    between atoms: _236  and  _237
REMARK  101  A    between atoms: _242  and  _244
REMARK  102  A    between atoms: _244  and  _245
REMARK  103  A    between atoms: _244  and  _247
REMARK  104  A    between atoms: _247  and  _248
REMARK  105  A    between atoms: _251  and  _253
REMARK  106  A    between atoms: _253  and  _254
REMARK  107  A    between atoms: _253  and  _256
REMARK  108  A    between atoms: _256  and  _257
REMARK  109  A    between atoms: _260  and  _262
REMARK  110  A    between atoms: _262  and  _263
REMARK  111  A    between atoms: _265  and  _267
REMARK  112  A    between atoms: _267  and  _268
REMARK  113  A    between atoms: _267  and  _270
REMARK  114  A    between atoms: _270  and  _271
REMARK  115  A    between atoms: _271  and  _272
REMARK  116  A    between atoms: _272  and  _273
REMARK  117  A    between atoms: _282  and  _284
REMARK  118  A    between atoms: _284  and  _285
REMARK  119  A    between atoms: _284  and  _287
REMARK  120  A    between atoms: _287  and  _288
REMARK  121  A    between atoms: _293  and  _295
REMARK  122  A    between atoms: _295  and  _296
REMARK  123  A    between atoms: _295  and  _298
REMARK  124  A    between atoms: _298  and  _299
REMARK  125  A    between atoms: _299  and  _300
REMARK  126  A    between atoms: _300  and  _301
REMARK  127  A    between atoms: _310  and  _312
REMARK  128  A    between atoms: _312  and  _313
REMARK  129  A    between atoms: _312  and  _315
REMARK  130  A    between atoms: _315  and  _316
REMARK  131  A    between atoms: _319  and  _321
REMARK  132  A    between atoms: _321  and  _322
REMARK  133  A    between atoms: _321  and  _324
REMARK  134  A    between atoms: _324  and  _325
REMARK  135  A    between atoms: _328  and  _330
REMARK  136  A    between atoms: _330  and  _331
REMARK  137  A    between atoms: _330  and  _333
REMARK  138  A    between atoms: _333  and  _334
REMARK  139  A    between atoms: _337  and  _339
REMARK  140  A    between atoms: _339  and  _340
REMARK  141  A    between atoms: _339  and  _342
REMARK  142  A    between atoms: _342  and  _343
REMARK  143  A    between atoms: _346  and  _348
REMARK  144  A    between atoms: _348  and  _349
REMARK  145  A    between atoms: _348  and  _351
REMARK  146  A    between atoms: _351  and  _352
REMARK  147  A    between atoms: _355  and  _357
REMARK  148  A    between atoms: _357  and  _358
REMARK  149  A    between atoms: _360  and  _362
REMARK  150  A    between atoms: _362  and  _363
REMARK  151  A    between atoms: _366  and  _368
REMARK  152  A    between atoms: _368  and  _369
REMARK  153  A    between atoms: _368  and  _371
REMARK  154  A    between atoms: _371  and  _372
REMARK  155  A    between atoms: _375  and  _377
REMARK  156  A    between atoms: _377  and  _378
REMARK  157  A    between atoms: _377  and  _380
REMARK  158  A    between atoms: _380  and  _381
REMARK  159  A    between atoms: _384  and  _386
REMARK  160  A    between atoms: _386  and  _387
REMARK  161  A    between atoms: _386  and  _389
REMARK  162  A    between atoms: _389  and  _390
REMARK  163  A    between atoms: _393  and  _395
REMARK  164  A    between atoms: _395  and  _396
REMARK  165  A    between atoms: _395  and  _398
REMARK  166  A    between atoms: _401  and  _403
REMARK  167  A    between atoms: _403  and  _404
REMARK  168  A    between atoms: _403  and  _406
REMARK  169  A    between atoms: _406  and  _407
REMARK  170  A    between atoms: _407  and  _408
REMARK  171  A    between atoms: _408  and  _409
REMARK  172  A    between atoms: _409  and  _410
REMARK  173  A    between atoms: _414  and  _416
REMARK  174  A    between atoms: _416  and  _417
REMARK  175  A    between atoms: _416  and  _419
REMARK  176  A    between atoms: _419  and  _420
REMARK  177  A    between atoms: _420  and  _421
REMARK  178  A    between atoms: _423  and  _425
REMARK  179  A    between atoms: _425  and  _426
REMARK  180  A    between atoms: _425  and  _428
REMARK  181  A    between atoms: _428  and  _429
REMARK  182  A    between atoms: _432  and  _434
REMARK  183  A    between atoms: _434  and  _435
REMARK  184  A    between atoms: _437  and  _439
REMARK  185  A    between atoms: _439  and  _440
REMARK  186  A    between atoms: _442  and  _444
REMARK  187  A    between atoms: _444  and  _445
REMARK  188  A    between atoms: _444  and  _447
REMARK  189  A    between atoms: _447  and  _448
REMARK  190  A    between atoms: _451  and  _453
REMARK  191  A    between atoms: _453  and  _454
REMARK  192  A    between atoms: _456  and  _458
REMARK  193  A    between atoms: _458  and  _459
REMARK  194  A    between atoms: _461  and  _463
REMARK  195  A    between atoms: _463  and  _464
REMARK  196  A    between atoms: _463  and  _466
REMARK  197  A    between atoms: _466  and  _467
REMARK  198  A    between atoms: _473  and  _475
REMARK  199  A    between atoms: _475  and  _476
REMARK  200  A    between atoms: _475  and  _478
REMARK  201  A    between atoms: _478  and  _479
REMARK  202  A    between atoms: _482  and  _484
REMARK  203  A    between atoms: _484  and  _485
REMARK  204  A    between atoms: _484  and  _487
REMARK  205  A    between atoms: _490  and  _492
REMARK  206  A    between atoms: _492  and  _493
REMARK  207  A    between atoms: _492  and  _495
REMARK  208  A    between atoms: _495  and  _496
REMARK  209  A    between atoms: _499  and  _501
REMARK  210  A    between atoms: _501  and  _502
REMARK  211  A    between atoms: _501  and  _504
REMARK  212  A    between atoms: _504  and  _505
REMARK  213  A    between atoms: _509  and  _510
REMARK  214  A    between atoms: _515  and  _517
REMARK  215  A    between atoms: _517  and  _518
REMARK  216  A    between atoms: _517  and  _520
REMARK  217  A    between atoms: _523  and  _525
REMARK  218  A    between atoms: _525  and  _526
REMARK  219  A    between atoms: _525  and  _528
REMARK  220  A    between atoms: _528  and  _529
REMARK  221  A    between atoms: _534  and  _536
REMARK  222  A    between atoms: _536  and  _537
REMARK  223  A    between atoms: _536  and  _539
REMARK  224  A    between atoms: _539  and  _540
REMARK  225  A    between atoms: _543  and  _545
REMARK  226  A    between atoms: _545  and  _546
REMARK  227  A    between atoms: _545  and  _548
REMARK  228  A    between atoms: _548  and  _549
REMARK  229  A    between atoms: _552  and  _554
REMARK  230  A    between atoms: _554  and  _555
REMARK  231  A    between atoms: _557  and  _559
REMARK  232  A    between atoms: _559  and  _560
REMARK  233  A    between atoms: _559  and  _562
REMARK  234  A    between atoms: _562  and  _563
REMARK  235  A    between atoms: _563  and  _564
REMARK  236  A    between atoms: _564  and  _565
REMARK  237  A    between atoms: _574  and  _576
REMARK  238  A    between atoms: _576  and  _577
REMARK  239  A    between atoms: _576  and  _579
REMARK  240  A    between atoms: _579  and  _580
REMARK                            x       y       z     vdW  Elec       q    Type
REMARK                         _______ _______ _______ _____ _____    ______ ____
ROOT
ATOM      1  O   HOH     1      26.016  25.930  16.072  0.00  0.00    +0.000 OA
ENDROOT
TORSDOF 0
REMARK  Name = ../refined-set-2016/3kdc/3kdc_pocket.pdb
REMARK  240 active torsions:
REMARK  status: ('A' for Active; 'I' for Inactive)
REMARK    1  A    between atoms: _1  and  _3
REMARK    2  A    between atoms: _3  and  _4
REMARK    3  A    between atoms: _3  and  _6
REMARK    4  A    between atoms: _6  and  _7
REMARK    5  A    between atoms: _7  and  _8
REMARK    6  A    between atoms: _8  and  _9
REMARK    7  A    between atoms: _18  and  _20
REMARK    8  A    between atoms: _20  and  _21
REMARK    9  A    between atoms: _20  and  _23
REMARK   10  A    between atoms: _23  and  _24
REMARK   11  A    between atoms: _27  and  _29
REMARK   12  A    between atoms: _29  and  _30
REMARK   13  A    between atoms: _29  and  _32
REMARK   14  A    between atoms: _32  and  _33
REMARK   15  A    between atoms: _36  and  _38
REMARK   16  A    between atoms: _38  and  _39
REMARK   17  A    between atoms: _38  and  _41
REMARK   18  A    between atoms: _41  and  _42
REMARK   19  A    between atoms: _45  and  _47
REMARK   20  A    between atoms: _47  and  _48
REMARK   21  A    between atoms: _47  and  _50
REMARK   22  A    between atoms: _50  and  _51
REMARK   23  A    between atoms: _54  and  _56
REMARK   24  A    between atoms: _56  and  _57
REMARK   25  A    between atoms: _59  and  _61
REMARK   26  A    between atoms: _61  and  _62
REMARK   27  A    between atoms: _65  and  _67
REMARK   28  A    between atoms: _67  and  _68
REMARK   29  A    between atoms: _67  and  _70
REMARK   30  A    between atoms: _70  and  _71
REMARK   31  A    between atoms: _74  and  _76
REMARK   32  A    between atoms: _76  and  _77
REMARK   33  A    between atoms: _76  and  _79
REMARK   34  A    between atoms: _79  and  _80
REMARK   35  A    between atoms: _83  and  _85
REMARK   36  A    between atoms: _85  and  _86
REMARK   37  A    between atoms: _85  and  _88
REMARK   38  A    between atoms: _88  and  _89
REMARK   39  A    between atoms: _92  and  _94
REMARK   40  A    between atoms: _94  and  _95
REMARK   41  A    between atoms: _94  and  _97
REMARK   42  A    between atoms: _100  and  _102
REMARK   43  A    between atoms: _102  and  _103
REMARK   44  A    between atoms: _102  and  _105
REMARK   45  A    between atoms: _105  and  _106
REMARK   46  A    between atoms: _109  and  _111
REMARK   47  A    between atoms: _111  and  _112
REMARK   48  A    between atoms: _111  and  _114
REMARK   49  A    between atoms: _114  and  _115
REMARK   50  A    between atoms: _115  and  _116
REMARK   51  A    between atoms: _116  and  _117
REMARK   52  A    between atoms: _117  and  _118
REMARK   53  A    between atoms: _122  and  _124
REMARK   54  A    between atoms: _124  and  _125
REMARK   55  A    between atoms: _124  and  _127
REMARK   56  A    between atoms: _127  and  _128
REMARK   57  A    between atoms: _128  and  _129
REMARK   58  A    between atoms: _131  and  _133
REMARK   59  A    between atoms: _133  and  _134
REMARK   60  A    between atoms: _133  and  _136
REMARK   61  A    between atoms: _136  and  _137
REMARK   62  A    between atoms: _140  and  _142
REMARK   63  A    between atoms: _142  and  _143
REMARK   64  A    between atoms: _145  and  _147
REMARK   65  A    between atoms: _147  and  _148
REMARK   66  A    between atoms: _150  and  _152
REMARK   67  A    between atoms: _152  and  _153
REMARK   68  A    between atoms: _152  and  _155
REMARK   69  A    between atoms: _155  and  _156
REMARK   70  A    between atoms: _159  and  _161
REMARK   71  A    between atoms: _161  and  _162
REMARK   72  A    between atoms: _164  and  _166
REMARK   73  A    between atoms: _166  and  _167
REMARK   74  A    between atoms: _169  and  _171
REMARK   75  A    between atoms: _171  and  _172
REMARK   76  A    between atoms: _171  and  _174
REMARK   77  A    between atoms: _174  and  _175
REMARK   78  A    between atoms: _181  and  _183
REMARK   79  A    between atoms: _183  and  _184
REMARK   80  A    between atoms: _183  and  _186
REMARK   81  A    between atoms: _186  and  _187
REMARK   82  A    between atoms: _190  and  _192
REMARK   83  A    between atoms: _192  and  _193
REMARK   84  A    between atoms: _192  and  _195
REMARK   85  A    between atoms: _198  and  _200
REMARK   86  A    between atoms: _200  and  _201
REMARK   87  A    between atoms: _200  and  _203
REMARK   88  A    between atoms: _203  and  _204
REMARK   89  A    between atoms: _207  and  _209
REMARK   90  A    between atoms: _209  and  _210
REMARK   91  A    between atoms: _209  and  _212
REMARK   92  A    between atoms: _212  and  _213
REMARK   93  A    between atoms: _217  and  _218
REMARK   94  A    between atoms: _223  and  _225
REMARK   95  A    between atoms: _225  and  _226
REMARK   96  A    between atoms: _225  and  _228
REMARK   97  A    between atoms: _231  and  _233
REMARK   98  A    between atoms: _233  and  _234
REMARK   99  A    between atoms: _233  and  _236
REMARK  100  A    between atoms: _236  and  _237
REMARK  101  A    between atoms: _242  and  _244
REMARK  102  A    between atoms: _244  and  _245
REMARK  103  A    between atoms: _244  and  _247
REMARK  104  A    between atoms: _247  and  _248
REMARK  105  A    between atoms: _251  and  _253
REMARK  106  A    between atoms: _253  and  _254
REMARK  107  A    between atoms: _253  and  _256
REMARK  108  A    between atoms: _256  and  _257
REMARK  109  A    between atoms: _260  and  _262
REMARK  110  A    between atoms: _262  and  _263
REMARK  111  A    between atoms: _265  and  _267
REMARK  112  A    between atoms: _267  and  _268
REMARK  113  A    between atoms: _267  and  _270
REMARK  114  A    between atoms: _270  and  _271
REMARK  115  A    between atoms: _271  and  _272
REMARK  116  A    between atoms: _272  and  _273
REMARK  117  A    between atoms: _282  and  _284
REMARK  118  A    between atoms: _284  and  _285
REMARK  119  A    between atoms: _284  and  _287
REMARK  120  A    between atoms: _287  and  _288
REMARK  121  A    between atoms: _293  and  _295
REMARK  122  A    between atoms: _295  and  _296
REMARK  123  A    between atoms: _295  and  _298
REMARK  124  A    between atoms: _298  and  _299
REMARK  125  A    between atoms: _299  and  _300
REMARK  126  A    between atoms: _300  and  _301
REMARK  127  A    between atoms: _310  and  _312
REMARK  128  A    between atoms: _312  and  _313
REMARK  129  A    between atoms: _312  and  _315
REMARK  130  A    between atoms: _315  and  _316
REMARK  131  A    between atoms: _319  and  _321
REMARK  132  A    between atoms: _321  and  _322
REMARK  133  A    between atoms: _321  and  _324
REMARK  134  A    between atoms: _324  and  _325
REMARK  135  A    between atoms: _328  and  _330
REMARK  136  A    between atoms: _330  and  _331
REMARK  137  A    between atoms: _330  and  _333
REMARK  138  A    between atoms: _333  and  _334
REMARK  139  A    between atoms: _337  and  _339
REMARK  140  A    between atoms: _339  and  _340
REMARK  141  A    between atoms: _339  and  _342
REMARK  142  A    between atoms: _342  and  _343
REMARK  143  A    between atoms: _346  and  _348
REMARK  144  A    between atoms: _348  and  _349
REMARK  145  A    between atoms: _348  and  _351
REMARK  146  A    between atoms: _351  and  _352
REMARK  147  A    between atoms: _355  and  _357
REMARK  148  A    between atoms: _357  and  _358
REMARK  149  A    between atoms: _360  and  _362
REMARK  150  A    between atoms: _362  and  _363
REMARK  151  A    between atoms: _366  and  _368
REMARK  152  A    between atoms: _368  and  _369
REMARK  153  A    between atoms: _368  and  _371
REMARK  154  A    between atoms: _371  and  _372
REMARK  155  A    between atoms: _375  and  _377
REMARK  156  A    between atoms: _377  and  _378
REMARK  157  A    between atoms: _377  and  _380
REMARK  158  A    between atoms: _380  and  _381
REMARK  159  A    between atoms: _384  and  _386
REMARK  160  A    between atoms: _386  and  _387
REMARK  161  A    between atoms: _386  and  _389
REMARK  162  A    between atoms: _389  and  _390
REMARK  163  A    between atoms: _393  and  _395
REMARK  164  A    between atoms: _395  and  _396
REMARK  165  A    between atoms: _395  and  _398
REMARK  166  A    between atoms: _401  and  _403
REMARK  167  A    between atoms: _403  and  _404
REMARK  168  A    between atoms: _403  and  _406
REMARK  169  A    between atoms: _406  and  _407
REMARK  170  A    between atoms: _407  and  _408
REMARK  171  A    between atoms: _408  and  _409
REMARK  172  A    between atoms: _409  and  _410
REMARK  173  A    between atoms: _414  and  _416
REMARK  174  A    between atoms: _416  and  _417
REMARK  175  A    between atoms: _416  and  _419
REMARK  176  A    between atoms: _419  and  _420
REMARK  177  A    between atoms: _420  and  _421
REMARK  178  A    between atoms: _423  and  _425
REMARK  179  A    between atoms: _425  and  _426
REMARK  180  A    between atoms: _425  and  _428
REMARK  181  A    between atoms: _428  and  _429
REMARK  182  A    between atoms: _432  and  _434
REMARK  183  A    between atoms: _434  and  _435
REMARK  184  A    between atoms: _437  and  _439
REMARK  185  A    between atoms: _439  and  _440
REMARK  186  A    between atoms: _442  and  _444
REMARK  187  A    between atoms: _444  and  _445
REMARK  188  A    between atoms: _444  and  _447
REMARK  189  A    between atoms: _447  and  _448
REMARK  190  A    between atoms: _451  and  _453
REMARK  191  A    between atoms: _453  and  _454
REMARK  192  A    between atoms: _456  and  _458
REMARK  193  A    between atoms: _458  and  _459
REMARK  194  A    between atoms: _461  and  _463
REMARK  195  A    between atoms: _463  and  _464
REMARK  196  A    between atoms: _463  and  _466
REMARK  197  A    between atoms: _466  and  _467
REMARK  198  A    between atoms: _473  and  _475
REMARK  199  A    between atoms: _475  and  _476
REMARK  200  A    between atoms: _475  and  _478
REMARK  201  A    between atoms: _478  and  _479
REMARK  202  A    between atoms: _482  and  _484
REMARK  203  A    between atoms: _484  and  _485
REMARK  204  A    between atoms: _484  and  _487
REMARK  205  A    between atoms: _490  and  _492
REMARK  206  A    between atoms: _492  and  _493
REMARK  207  A    between atoms: _492  and  _495
REMARK  208  A    between atoms: _495  and  _496
REMARK  209  A    between atoms: _499  and  _501
REMARK  210  A    between atoms: _501  and  _502
REMARK  211  A    between atoms: _501  and  _504
REMARK  212  A    between atoms: _504  and  _505
REMARK  213  A    between atoms: _509  and  _510
REMARK  214  A    between atoms: _515  and  _517
REMARK  215  A    between atoms: _517  and  _518
REMARK  216  A    between atoms: _517  and  _520
REMARK  217  A    between atoms: _523  and  _525
REMARK  218  A    between atoms: _525  and  _526
REMARK  219  A    between atoms: _525  and  _528
REMARK  220  A    between atoms: _528  and  _529
REMARK  221  A    between atoms: _534  and  _536
REMARK  222  A    between atoms: _536  and  _537
REMARK  223  A    between atoms: _536  and  _539
REMARK  224  A    between atoms: _539  and  _540
REMARK  225  A    between atoms: _543  and  _545
REMARK  226  A    between atoms: _545  and  _546
REMARK  227  A    between atoms: _545  and  _548
REMARK  228  A    between atoms: _548  and  _549
REMARK  229  A    between atoms: _552  and  _554
REMARK  230  A    between atoms: _554  and  _555
REMARK  231  A    between atoms: _557  and  _559
REMARK  232  A    between atoms: _559  and  _560
REMARK  233  A    between atoms: _559  and  _562
REMARK  234  A    between atoms: _562  and  _563
REMARK  235  A    between atoms: _563  and  _564
REMARK  236  A    between atoms: _564  and  _565
REMARK  237  A    between atoms: _574  and  _576
REMARK  238  A    between atoms: _576  and  _577
REMARK  239  A    between atoms: _576  and  _579
REMARK  240  A    between atoms: _579  and  _580
REMARK                            x       y       z     vdW  Elec       q    Type
REMARK                         _______ _______ _______ _____ _____    ______ ____
ROOT
ATOM      1  O   HOH     1      20.317  28.641  21.099  0.00  0.00    +0.000 OA
ENDROOT
TORSDOF 0
REMARK  Name = ../refined-set-2016/3kdc/3kdc_pocket.pdb
REMARK  240 active torsions:
REMARK  status: ('A' for Active; 'I' for Inactive)
REMARK    1  A    between atoms: _1  and  _3
REMARK    2  A    between atoms: _3  and  _4
REMARK    3  A    between atoms: _3  and  _6
REMARK    4  A    between atoms: _6  and  _7
REMARK    5  A    between atoms: _7  and  _8
REMARK    6  A    between atoms: _8  and  _9
REMARK    7  A    between atoms: _18  and  _20
REMARK    8  A    between atoms: _20  and  _21
REMARK    9  A    between atoms: _20  and  _23
REMARK   10  A    between atoms: _23  and  _24
REMARK   11  A    between atoms: _27  and  _29
REMARK   12  A    between atoms: _29  and  _30
REMARK   13  A    between atoms: _29  and  _32
REMARK   14  A    between atoms: _32  and  _33
REMARK   15  A    between atoms: _36  and  _38
REMARK   16  A    between atoms: _38  and  _39
REMARK   17  A    between atoms: _38  and  _41
REMARK   18  A    between atoms: _41  and  _42
REMARK   19  A    between atoms: _45  and  _47
REMARK   20  A    between atoms: _47  and  _48
REMARK   21  A    between atoms: _47  and  _50
REMARK   22  A    between atoms: _50  and  _51
REMARK   23  A    between atoms: _54  and  _56
REMARK   24  A    between atoms: _56  and  _57
REMARK   25  A    between atoms: _59  and  _61
REMARK   26  A    between atoms: _61  and  _62
REMARK   27  A    between atoms: _65  and  _67
REMARK   28  A    between atoms: _67  and  _68
REMARK   29  A    between atoms: _67  and  _70
REMARK   30  A    between atoms: _70  and  _71
REMARK   31  A    between atoms: _74  and  _76
REMARK   32  A    between atoms: _76  and  _77
REMARK   33  A    between atoms: _76  and  _79
REMARK   34  A    between atoms: _79  and  _80
REMARK   35  A    between atoms: _83  and  _85
REMARK   36  A    between atoms: _85  and  _86
REMARK   37  A    between atoms: _85  and  _88
REMARK   38  A    between atoms: _88  and  _89
REMARK   39  A    between atoms: _92  and  _94
REMARK   40  A    between atoms: _94  and  _95
REMARK   41  A    between atoms: _94  and  _97
REMARK   42  A    between atoms: _100  and  _102
REMARK   43  A    between atoms: _102  and  _103
REMARK   44  A    between atoms: _102  and  _105
REMARK   45  A    between atoms: _105  and  _106
REMARK   46  A    between atoms: _109  and  _111
REMARK   47  A    between atoms: _111  and  _112
REMARK   48  A    between atoms: _111  and  _114
REMARK   49  A    between atoms: _114  and  _115
REMARK   50  A    between atoms: _115  and  _116
REMARK   51  A    between atoms: _116  and  _117
REMARK   52  A    between atoms: _117  and  _118
REMARK   53  A    between atoms: _122  and  _124
REMARK   54  A    between atoms: _124  and  _125
REMARK   55  A    between atoms: _124  and  _127
REMARK   56  A    between atoms: _127  and  _128
REMARK   57  A    between atoms: _128  and  _129
REMARK   58  A    between atoms: _131  and  _133
REMARK   59  A    between atoms: _133  and  _134
REMARK   60  A    between atoms: _133  and  _136
REMARK   61  A    between atoms: _136  and  _137
REMARK   62  A    between atoms: _140  and  _142
REMARK   63  A    between atoms: _142  and  _143
REMARK   64  A    between atoms: _145  and  _147
REMARK   65  A    between atoms: _147  and  _148
REMARK   66  A    between atoms: _150  and  _152
REMARK   67  A    between atoms: _152  and  _153
REMARK   68  A    between atoms: _152  and  _155
REMARK   69  A    between atoms: _155  and  _156
REMARK   70  A    between atoms: _159  and  _161
REMARK   71  A    between atoms: _161  and  _162
REMARK   72  A    between atoms: _164  and  _166
REMARK   73  A    between atoms: _166  and  _167
REMARK   74  A    between atoms: _169  and  _171
REMARK   75  A    between atoms: _171  and  _172
REMARK   76  A    between atoms: _171  and  _174
REMARK   77  A    between atoms: _174  and  _175
REMARK   78  A    between atoms: _181  and  _183
REMARK   79  A    between atoms: _183  and  _184
REMARK   80  A    between atoms: _183  and  _186
REMARK   81  A    between atoms: _186  and  _187
REMARK   82  A    between atoms: _190  and  _192
REMARK   83  A    between atoms: _192  and  _193
REMARK   84  A    between atoms: _192  and  _195
REMARK   85  A    between atoms: _198  and  _200
REMARK   86  A    between atoms: _200  and  _201
REMARK   87  A    between atoms: _200  and  _203
REMARK   88  A    between atoms: _203  and  _204
REMARK   89  A    between atoms: _207  and  _209
REMARK   90  A    between atoms: _209  and  _210
REMARK   91  A    between atoms: _209  and  _212
REMARK   92  A    between atoms: _212  and  _213
REMARK   93  A    between atoms: _217  and  _218
REMARK   94  A    between atoms: _223  and  _225
REMARK   95  A    between atoms: _225  and  _226
REMARK   96  A    between atoms: _225  and  _228
REMARK   97  A    between atoms: _231  and  _233
REMARK   98  A    between atoms: _233  and  _234
REMARK   99  A    between atoms: _233  and  _236
REMARK  100  A    between atoms: _236  and  _237
REMARK  101  A    between atoms: _242  and  _244
REMARK  102  A    between atoms: _244  and  _245
REMARK  103  A    between atoms: _244  and  _247
REMARK  104  A    between atoms: _247  and  _248
REMARK  105  A    between atoms: _251  and  _253
REMARK  106  A    between atoms: _253  and  _254
REMARK  107  A    between atoms: _253  and  _256
REMARK  108  A    between atoms: _256  and  _257
REMARK  109  A    between atoms: _260  and  _262
REMARK  110  A    between atoms: _262  and  _263
REMARK  111  A    between atoms: _265  and  _267
REMARK  112  A    between atoms: _267  and  _268
REMARK  113  A    between atoms: _267  and  _270
REMARK  114  A    between atoms: _270  and  _271
REMARK  115  A    between atoms: _271  and  _272
REMARK  116  A    between atoms: _272  and  _273
REMARK  117  A    between atoms: _282  and  _284
REMARK  118  A    between atoms: _284  and  _285
REMARK  119  A    between atoms: _284  and  _287
REMARK  120  A    between atoms: _287  and  _288
REMARK  121  A    between atoms: _293  and  _295
REMARK  122  A    between atoms: _295  and  _296
REMARK  123  A    between atoms: _295  and  _298
REMARK  124  A    between atoms: _298  and  _299
REMARK  125  A    between atoms: _299  and  _300
REMARK  126  A    between atoms: _300  and  _301
REMARK  127  A    between atoms: _310  and  _312
REMARK  128  A    between atoms: _312  and  _313
REMARK  129  A    between atoms: _312  and  _315
REMARK  130  A    between atoms: _315  and  _316
REMARK  131  A    between atoms: _319  and  _321
REMARK  132  A    between atoms: _321  and  _322
REMARK  133  A    between atoms: _321  and  _324
REMARK  134  A    between atoms: _324  and  _325
REMARK  135  A    between atoms: _328  and  _330
REMARK  136  A    between atoms: _330  and  _331
REMARK  137  A    between atoms: _330  and  _333
REMARK  138  A    between atoms: _333  and  _334
REMARK  139  A    between atoms: _337  and  _339
REMARK  140  A    between atoms: _339  and  _340
REMARK  141  A    between atoms: _339  and  _342
REMARK  142  A    between atoms: _342  and  _343
REMARK  143  A    between atoms: _346  and  _348
REMARK  144  A    between atoms: _348  and  _349
REMARK  145  A    between atoms: _348  and  _351
REMARK  146  A    between atoms: _351  and  _352
REMARK  147  A    between atoms: _355  and  _357
REMARK  148  A    between atoms: _357  and  _358
REMARK  149  A    between atoms: _360  and  _362
REMARK  150  A    between atoms: _362  and  _363
REMARK  151  A    between atoms: _366  and  _368
REMARK  152  A    between atoms: _368  and  _369
REMARK  153  A    between atoms: _368  and  _371
REMARK  154  A    between atoms: _371  and  _372
REMARK  155  A    between atoms: _375  and  _377
REMARK  156  A    between atoms: _377  and  _378
REMARK  157  A    between atoms: _377  and  _380
REMARK  158  A    between atoms: _380  and  _381
REMARK  159  A    between atoms: _384  and  _386
REMARK  160  A    between atoms: _386  and  _387
REMARK  161  A    between atoms: _386  and  _389
REMARK  162  A    between atoms: _389  and  _390
REMARK  163  A    between atoms: _393  and  _395
REMARK  164  A    between atoms: _395  and  _396
REMARK  165  A    between atoms: _395  and  _398
REMARK  166  A    between atoms: _401  and  _403
REMARK  167  A    between atoms: _403  and  _404
REMARK  168  A    between atoms: _403  and  _406
REMARK  169  A    between atoms: _406  and  _407
REMARK  170  A    between atoms: _407  and  _408
REMARK  171  A    between atoms: _408  and  _409
REMARK  172  A    between atoms: _409  and  _410
REMARK  173  A    between atoms: _414  and  _416
REMARK  174  A    between atoms: _416  and  _417
REMARK  175  A    between atoms: _416  and  _419
REMARK  176  A    between atoms: _419  and  _420
REMARK  177  A    between atoms: _420  and  _421
REMARK  178  A    between atoms: _423  and  _425
REMARK  179  A    between atoms: _425  and  _426
REMARK  180  A    between atoms: _425  and  _428
REMARK  181  A    between atoms: _428  and  _429
REMARK  182  A    between atoms: _432  and  _434
REMARK  183  A    between atoms: _434  and  _435
REMARK  184  A    between atoms: _437  and  _439
REMARK  185  A    between atoms: _439  and  _440
REMARK  186  A    between atoms: _442  and  _444
REMARK  187  A    between atoms: _444  and  _445
REMARK  188  A    between atoms: _444  and  _447
REMARK  189  A    between atoms: _447  and  _448
REMARK  190  A    between atoms: _451  and  _453
REMARK  191  A    between atoms: _453  and  _454
REMARK  192  A    between atoms: _456  and  _458
REMARK  193  A    between atoms: _458  and  _459
REMARK  194  A    between atoms: _461  and  _463
REMARK  195  A    between atoms: _463  and  _464
REMARK  196  A    between atoms: _463  and  _466
REMARK  197  A    between atoms: _466  and  _467
REMARK  198  A    between atoms: _473  and  _475
REMARK  199  A    between atoms: _475  and  _476
REMARK  200  A    between atoms: _475  and  _478
REMARK  201  A    between atoms: _478  and  _479
REMARK  202  A    between atoms: _482  and  _484
REMARK  203  A    between atoms: _484  and  _485
REMARK  204  A    between atoms: _484  and  _487
REMARK  205  A    between atoms: _490  and  _492
REMARK  206  A    between atoms: _492  and  _493
REMARK  207  A    between atoms: _492  and  _495
REMARK  208  A    between atoms: _495  and  _496
REMARK  209  A    between atoms: _499  and  _501
REMARK  210  A    between atoms: _501  and  _502
REMARK  211  A    between atoms: _501  and  _504
REMARK  212  A    between atoms: _504  and  _505
REMARK  213  A    between atoms: _509  and  _510
REMARK  214  A    between atoms: _515  and  _517
REMARK  215  A    between atoms: _517  and  _518
REMARK  216  A    between atoms: _517  and  _520
REMARK  217  A    between atoms: _523  and  _525
REMARK  218  A    between atoms: _525  and  _526
REMARK  219  A    between atoms: _525  and  _528
REMARK  220  A    between atoms: _528  and  _529
REMARK  221  A    between atoms: _534  and  _536
REMARK  222  A    between atoms: _536  and  _537
REMARK  223  A    between atoms: _536  and  _539
REMARK  224  A    between atoms: _539  and  _540
REMARK  225  A    between atoms: _543  and  _545
REMARK  226  A    between atoms: _545  and  _546
REMARK  227  A    between atoms: _545  and  _548
REMARK  228  A    between atoms: _548  and  _549
REMARK  229  A    between atoms: _552  and  _554
REMARK  230  A    between atoms: _554  and  _555
REMARK  231  A    between atoms: _557  and  _559
REMARK  232  A    between atoms: _559  and  _560
REMARK  233  A    between atoms: _559  and  _562
REMARK  234  A    between atoms: _562  and  _563
REMARK  235  A    between atoms: _563  and  _564
REMARK  236  A    between atoms: _564  and  _565
REMARK  237  A    between atoms: _574  and  _576
REMARK  238  A    between atoms: _576  and  _577
REMARK  239  A    between atoms: _576  and  _579
REMARK  240  A    between atoms: _579  and  _580
REMARK                            x       y       z     vdW  Elec       q    Type
REMARK                         _______ _______ _______ _____ _____    ______ ____
ROOT
ATOM      1  O   HOH     1      28.960  26.460  15.461  0.00  0.00    +0.000 OA
ENDROOT
TORSDOF 0
REMARK  Name = ../refined-set-2016/3kdc/3kdc_pocket.pdb
REMARK  240 active torsions:
REMARK  status: ('A' for Active; 'I' for Inactive)
REMARK    1  A    between atoms: _1  and  _3
REMARK    2  A    between atoms: _3  and  _4
REMARK    3  A    between atoms: _3  and  _6
REMARK    4  A    between atoms: _6  and  _7
REMARK    5  A    between atoms: _7  and  _8
REMARK    6  A    between atoms: _8  and  _9
REMARK    7  A    between atoms: _18  and  _20
REMARK    8  A    between atoms: _20  and  _21
REMARK    9  A    between atoms: _20  and  _23
REMARK   10  A    between atoms: _23  and  _24
REMARK   11  A    between atoms: _27  and  _29
REMARK   12  A    between atoms: _29  and  _30
REMARK   13  A    between atoms: _29  and  _32
REMARK   14  A    between atoms: _32  and  _33
REMARK   15  A    between atoms: _36  and  _38
REMARK   16  A    between atoms: _38  and  _39
REMARK   17  A    between atoms: _38  and  _41
REMARK   18  A    between atoms: _41  and  _42
REMARK   19  A    between atoms: _45  and  _47
REMARK   20  A    between atoms: _47  and  _48
REMARK   21  A    between atoms: _47  and  _50
REMARK   22  A    between atoms: _50  and  _51
REMARK   23  A    between atoms: _54  and  _56
REMARK   24  A    between atoms: _56  and  _57
REMARK   25  A    between atoms: _59  and  _61
REMARK   26  A    between atoms: _61  and  _62
REMARK   27  A    between atoms: _65  and  _67
REMARK   28  A    between atoms: _67  and  _68
REMARK   29  A    between atoms: _67  and  _70
REMARK   30  A    between atoms: _70  and  _71
REMARK   31  A    between atoms: _74  and  _76
REMARK   32  A    between atoms: _76  and  _77
REMARK   33  A    between atoms: _76  and  _79
REMARK   34  A    between atoms: _79  and  _80
REMARK   35  A    between atoms: _83  and  _85
REMARK   36  A    between atoms: _85  and  _86
REMARK   37  A    between atoms: _85  and  _88
REMARK   38  A    between atoms: _88  and  _89
REMARK   39  A    between atoms: _92  and  _94
REMARK   40  A    between atoms: _94  and  _95
REMARK   41  A    between atoms: _94  and  _97
REMARK   42  A    between atoms: _100  and  _102
REMARK   43  A    between atoms: _102  and  _103
REMARK   44  A    between atoms: _102  and  _105
REMARK   45  A    between atoms: _105  and  _106
REMARK   46  A    between atoms: _109  and  _111
REMARK   47  A    between atoms: _111  and  _112
REMARK   48  A    between atoms: _111  and  _114
REMARK   49  A    between atoms: _114  and  _115
REMARK   50  A    between atoms: _115  and  _116
REMARK   51  A    between atoms: _116  and  _117
REMARK   52  A    between atoms: _117  and  _118
REMARK   53  A    between atoms: _122  and  _124
REMARK   54  A    between atoms: _124  and  _125
REMARK   55  A    between atoms: _124  and  _127
REMARK   56  A    between atoms: _127  and  _128
REMARK   57  A    between atoms: _128  and  _129
REMARK   58  A    between atoms: _131  and  _133
REMARK   59  A    between atoms: _133  and  _134
REMARK   60  A    between atoms: _133  and  _136
REMARK   61  A    between atoms: _136  and  _137
REMARK   62  A    between atoms: _140  and  _142
REMARK   63  A    between atoms: _142  and  _143
REMARK   64  A    between atoms: _145  and  _147
REMARK   65  A    between atoms: _147  and  _148
REMARK   66  A    between atoms: _150  and  _152
REMARK   67  A    between atoms: _152  and  _153
REMARK   68  A    between atoms: _152  and  _155
REMARK   69  A    between atoms: _155  and  _156
REMARK   70  A    between atoms: _159  and  _161
REMARK   71  A    between atoms: _161  and  _162
REMARK   72  A    between atoms: _164  and  _166
REMARK   73  A    between atoms: _166  and  _167
REMARK   74  A    between atoms: _169  and  _171
REMARK   75  A    between atoms: _171  and  _172
REMARK   76  A    between atoms: _171  and  _174
REMARK   77  A    between atoms: _174  and  _175
REMARK   78  A    between atoms: _181  and  _183
REMARK   79  A    between atoms: _183  and  _184
REMARK   80  A    between atoms: _183  and  _186
REMARK   81  A    between atoms: _186  and  _187
REMARK   82  A    between atoms: _190  and  _192
REMARK   83  A    between atoms: _192  and  _193
REMARK   84  A    between atoms: _192  and  _195
REMARK   85  A    between atoms: _198  and  _200
REMARK   86  A    between atoms: _200  and  _201
REMARK   87  A    between atoms: _200  and  _203
REMARK   88  A    between atoms: _203  and  _204
REMARK   89  A    between atoms: _207  and  _209
REMARK   90  A    between atoms: _209  and  _210
REMARK   91  A    between atoms: _209  and  _212
REMARK   92  A    between atoms: _212  and  _213
REMARK   93  A    between atoms: _217  and  _218
REMARK   94  A    between atoms: _223  and  _225
REMARK   95  A    between atoms: _225  and  _226
REMARK   96  A    between atoms: _225  and  _228
REMARK   97  A    between atoms: _231  and  _233
REMARK   98  A    between atoms: _233  and  _234
REMARK   99  A    between atoms: _233  and  _236
REMARK  100  A    between atoms: _236  and  _237
REMARK  101  A    between atoms: _242  and  _244
REMARK  102  A    between atoms: _244  and  _245
REMARK  103  A    between atoms: _244  and  _247
REMARK  104  A    between atoms: _247  and  _248
REMARK  105  A    between atoms: _251  and  _253
REMARK  106  A    between atoms: _253  and  _254
REMARK  107  A    between atoms: _253  and  _256
REMARK  108  A    between atoms: _256  and  _257
REMARK  109  A    between atoms: _260  and  _262
REMARK  110  A    between atoms: _262  and  _263
REMARK  111  A    between atoms: _265  and  _267
REMARK  112  A    between atoms: _267  and  _268
REMARK  113  A    between atoms: _267  and  _270
REMARK  114  A    between atoms: _270  and  _271
REMARK  115  A    between atoms: _271  and  _272
REMARK  116  A    between atoms: _272  and  _273
REMARK  117  A    between atoms: _282  and  _284
REMARK  118  A    between atoms: _284  and  _285
REMARK  119  A    between atoms: _284  and  _287
REMARK  120  A    between atoms: _287  and  _288
REMARK  121  A    between atoms: _293  and  _295
REMARK  122  A    between atoms: _295  and  _296
REMARK  123  A    between atoms: _295  and  _298
REMARK  124  A    between atoms: _298  and  _299
REMARK  125  A    between atoms: _299  and  _300
REMARK  126  A    between atoms: _300  and  _301
REMARK  127  A    between atoms: _310  and  _312
REMARK  128  A    between atoms: _312  and  _313
REMARK  129  A    between atoms: _312  and  _315
REMARK  130  A    between atoms: _315  and  _316
REMARK  131  A    between atoms: _319  and  _321
REMARK  132  A    between atoms: _321  and  _322
REMARK  133  A    between atoms: _321  and  _324
REMARK  134  A    between atoms: _324  and  _325
REMARK  135  A    between atoms: _328  and  _330
REMARK  136  A    between atoms: _330  and  _331
REMARK  137  A    between atoms: _330  and  _333
REMARK  138  A    between atoms: _333  and  _334
REMARK  139  A    between atoms: _337  and  _339
REMARK  140  A    between atoms: _339  and  _340
REMARK  141  A    between atoms: _339  and  _342
REMARK  142  A    between atoms: _342  and  _343
REMARK  143  A    between atoms: _346  and  _348
REMARK  144  A    between atoms: _348  and  _349
REMARK  145  A    between atoms: _348  and  _351
REMARK  146  A    between atoms: _351  and  _352
REMARK  147  A    between atoms: _355  and  _357
REMARK  148  A    between atoms: _357  and  _358
REMARK  149  A    between atoms: _360  and  _362
REMARK  150  A    between atoms: _362  and  _363
REMARK  151  A    between atoms: _366  and  _368
REMARK  152  A    between atoms: _368  and  _369
REMARK  153  A    between atoms: _368  and  _371
REMARK  154  A    between atoms: _371  and  _372
REMARK  155  A    between atoms: _375  and  _377
REMARK  156  A    between atoms: _377  and  _378
REMARK  157  A    between atoms: _377  and  _380
REMARK  158  A    between atoms: _380  and  _381
REMARK  159  A    between atoms: _384  and  _386
REMARK  160  A    between atoms: _386  and  _387
REMARK  161  A    between atoms: _386  and  _389
REMARK  162  A    between atoms: _389  and  _390
REMARK  163  A    between atoms: _393  and  _395
REMARK  164  A    between atoms: _395  and  _396
REMARK  165  A    between atoms: _395  and  _398
REMARK  166  A    between atoms: _401  and  _403
REMARK  167  A    between atoms: _403  and  _404
REMARK  168  A    between atoms: _403  and  _406
REMARK  169  A    between atoms: _406  and  _407
REMARK  170  A    between atoms: _407  and  _408
REMARK  171  A    between atoms: _408  and  _409
REMARK  172  A    between atoms: _409  and  _410
REMARK  173  A    between atoms: _414  and  _416
REMARK  174  A    between atoms: _416  and  _417
REMARK  175  A    between atoms: _416  and  _419
REMARK  176  A    between atoms: _419  and  _420
REMARK  177  A    between atoms: _420  and  _421
REMARK  178  A    between atoms: _423  and  _425
REMARK  179  A    between atoms: _425  and  _426
REMARK  180  A    between atoms: _425  and  _428
REMARK  181  A    between atoms: _428  and  _429
REMARK  182  A    between atoms: _432  and  _434
REMARK  183  A    between atoms: _434  and  _435
REMARK  184  A    between atoms: _437  and  _439
REMARK  185  A    between atoms: _439  and  _440
REMARK  186  A    between atoms: _442  and  _444
REMARK  187  A    between atoms: _444  and  _445
REMARK  188  A    between atoms: _444  and  _447
REMARK  189  A    between atoms: _447  and  _448
REMARK  190  A    between atoms: _451  and  _453
REMARK  191  A    between atoms: _453  and  _454
REMARK  192  A    between atoms: _456  and  _458
REMARK  193  A    between atoms: _458  and  _459
REMARK  194  A    between atoms: _461  and  _463
REMARK  195  A    between atoms: _463  and  _464
REMARK  196  A    between atoms: _463  and  _466
REMARK  197  A    between atoms: _466  and  _467
REMARK  198  A    between atoms: _473  and  _475
REMARK  199  A    between atoms: _475  and  _476
REMARK  200  A    between atoms: _475  and  _478
REMARK  201  A    between atoms: _478  and  _479
REMARK  202  A    between atoms: _482  and  _484
REMARK  203  A    between atoms: _484  and  _485
REMARK  204  A    between atoms: _484  and  _487
REMARK  205  A    between atoms: _490  and  _492
REMARK  206  A    between atoms: _492  and  _493
REMARK  207  A    between atoms: _492  and  _495
REMARK  208  A    between atoms: _495  and  _496
REMARK  209  A    between atoms: _499  and  _501
REMARK  210  A    between atoms: _501  and  _502
REMARK  211  A    between atoms: _501  and  _504
REMARK  212  A    between atoms: _504  and  _505
REMARK  213  A    between atoms: _509  and  _510
REMARK  214  A    between atoms: _515  and  _517
REMARK  215  A    between atoms: _517  and  _518
REMARK  216  A    between atoms: _517  and  _520
REMARK  217  A    between atoms: _523  and  _525
REMARK  218  A    between atoms: _525  and  _526
REMARK  219  A    between atoms: _525  and  _528
REMARK  220  A    between atoms: _528  and  _529
REMARK  221  A    between atoms: _534  and  _536
REMARK  222  A    between atoms: _536  and  _537
REMARK  223  A    between atoms: _536  and  _539
REMARK  224  A    between atoms: _539  and  _540
REMARK  225  A    between atoms: _543  and  _545
REMARK  226  A    between atoms: _545  and  _546
REMARK  227  A    between atoms: _545  and  _548
REMARK  228  A    between atoms: _548  and  _549
REMARK  229  A    between atoms: _552  and  _554
REMARK  230  A    between atoms: _554  and  _555
REMARK  231  A    between atoms: _557  and  _559
REMARK  232  A    between atoms: _559  and  _560
REMARK  233  A    between atoms: _559  and  _562
REMARK  234  A    between atoms: _562  and  _563
REMARK  235  A    between atoms: _563  and  _564
REMARK  236  A    between atoms: _564  and  _565
REMARK  237  A    between atoms: _574  and  _576
REMARK  238  A    between atoms: _576  and  _577
REMARK  239  A    between atoms: _576  and  _579
REMARK  240  A    between atoms: _579  and  _580
REMARK                            x       y       z     vdW  Elec       q    Type
REMARK                         _______ _______ _______ _____ _____    ______ ____
ROOT
ATOM      1  O   HOH     1       7.021  21.932  11.528  0.00  0.00    +0.000 OA
ENDROOT
TORSDOF 0
REMARK  Name = ../refined-set-2016/3kdc/3kdc_pocket.pdb
REMARK  240 active torsions:
REMARK  status: ('A' for Active; 'I' for Inactive)
REMARK    1  A    between atoms: _1  and  _3
REMARK    2  A    between atoms: _3  and  _4
REMARK    3  A    between atoms: _3  and  _6
REMARK    4  A    between atoms: _6  and  _7
REMARK    5  A    between atoms: _7  and  _8
REMARK    6  A    between atoms: _8  and  _9
REMARK    7  A    between atoms: _18  and  _20
REMARK    8  A    between atoms: _20  and  _21
REMARK    9  A    between atoms: _20  and  _23
REMARK   10  A    between atoms: _23  and  _24
REMARK   11  A    between atoms: _27  and  _29
REMARK   12  A    between atoms: _29  and  _30
REMARK   13  A    between atoms: _29  and  _32
REMARK   14  A    between atoms: _32  and  _33
REMARK   15  A    between atoms: _36  and  _38
REMARK   16  A    between atoms: _38  and  _39
REMARK   17  A    between atoms: _38  and  _41
REMARK   18  A    between atoms: _41  and  _42
REMARK   19  A    between atoms: _45  and  _47
REMARK   20  A    between atoms: _47  and  _48
REMARK   21  A    between atoms: _47  and  _50
REMARK   22  A    between atoms: _50  and  _51
REMARK   23  A    between atoms: _54  and  _56
REMARK   24  A    between atoms: _56  and  _57
REMARK   25  A    between atoms: _59  and  _61
REMARK   26  A    between atoms: _61  and  _62
REMARK   27  A    between atoms: _65  and  _67
REMARK   28  A    between atoms: _67  and  _68
REMARK   29  A    between atoms: _67  and  _70
REMARK   30  A    between atoms: _70  and  _71
REMARK   31  A    between atoms: _74  and  _76
REMARK   32  A    between atoms: _76  and  _77
REMARK   33  A    between atoms: _76  and  _79
REMARK   34  A    between atoms: _79  and  _80
REMARK   35  A    between atoms: _83  and  _85
REMARK   36  A    between atoms: _85  and  _86
REMARK   37  A    between atoms: _85  and  _88
REMARK   38  A    between atoms: _88  and  _89
REMARK   39  A    between atoms: _92  and  _94
REMARK   40  A    between atoms: _94  and  _95
REMARK   41  A    between atoms: _94  and  _97
REMARK   42  A    between atoms: _100  and  _102
REMARK   43  A    between atoms: _102  and  _103
REMARK   44  A    between atoms: _102  and  _105
REMARK   45  A    between atoms: _105  and  _106
REMARK   46  A    between atoms: _109  and  _111
REMARK   47  A    between atoms: _111  and  _112
REMARK   48  A    between atoms: _111  and  _114
REMARK   49  A    between atoms: _114  and  _115
REMARK   50  A    between atoms: _115  and  _116
REMARK   51  A    between atoms: _116  and  _117
REMARK   52  A    between atoms: _117  and  _118
REMARK   53  A    between atoms: _122  and  _124
REMARK   54  A    between atoms: _124  and  _125
REMARK   55  A    between atoms: _124  and  _127
REMARK   56  A    between atoms: _127  and  _128
REMARK   57  A    between atoms: _128  and  _129
REMARK   58  A    between atoms: _131  and  _133
REMARK   59  A    between atoms: _133  and  _134
REMARK   60  A    between atoms: _133  and  _136
REMARK   61  A    between atoms: _136  and  _137
REMARK   62  A    between atoms: _140  and  _142
REMARK   63  A    between atoms: _142  and  _143
REMARK   64  A    between atoms: _145  and  _147
REMARK   65  A    between atoms: _147  and  _148
REMARK   66  A    between atoms: _150  and  _152
REMARK   67  A    between atoms: _152  and  _153
REMARK   68  A    between atoms: _152  and  _155
REMARK   69  A    between atoms: _155  and  _156
REMARK   70  A    between atoms: _159  and  _161
REMARK   71  A    between atoms: _161  and  _162
REMARK   72  A    between atoms: _164  and  _166
REMARK   73  A    between atoms: _166  and  _167
REMARK   74  A    between atoms: _169  and  _171
REMARK   75  A    between atoms: _171  and  _172
REMARK   76  A    between atoms: _171  and  _174
REMARK   77  A    between atoms: _174  and  _175
REMARK   78  A    between atoms: _181  and  _183
REMARK   79  A    between atoms: _183  and  _184
REMARK   80  A    between atoms: _183  and  _186
REMARK   81  A    between atoms: _186  and  _187
REMARK   82  A    between atoms: _190  and  _192
REMARK   83  A    between atoms: _192  and  _193
REMARK   84  A    between atoms: _192  and  _195
REMARK   85  A    between atoms: _198  and  _200
REMARK   86  A    between atoms: _200  and  _201
REMARK   87  A    between atoms: _200  and  _203
REMARK   88  A    between atoms: _203  and  _204
REMARK   89  A    between atoms: _207  and  _209
REMARK   90  A    between atoms: _209  and  _210
REMARK   91  A    between atoms: _209  and  _212
REMARK   92  A    between atoms: _212  and  _213
REMARK   93  A    between atoms: _217  and  _218
REMARK   94  A    between atoms: _223  and  _225
REMARK   95  A    between atoms: _225  and  _226
REMARK   96  A    between atoms: _225  and  _228
REMARK   97  A    between atoms: _231  and  _233
REMARK   98  A    between atoms: _233  and  _234
REMARK   99  A    between atoms: _233  and  _236
REMARK  100  A    between atoms: _236  and  _237
REMARK  101  A    between atoms: _242  and  _244
REMARK  102  A    between atoms: _244  and  _245
REMARK  103  A    between atoms: _244  and  _247
REMARK  104  A    between atoms: _247  and  _248
REMARK  105  A    between atoms: _251  and  _253
REMARK  106  A    between atoms: _253  and  _254
REMARK  107  A    between atoms: _253  and  _256
REMARK  108  A    between atoms: _256  and  _257
REMARK  109  A    between atoms: _260  and  _262
REMARK  110  A    between atoms: _262  and  _263
REMARK  111  A    between atoms: _265  and  _267
REMARK  112  A    between atoms: _267  and  _268
REMARK  113  A    between atoms: _267  and  _270
REMARK  114  A    between atoms: _270  and  _271
REMARK  115  A    between atoms: _271  and  _272
REMARK  116  A    between atoms: _272  and  _273
REMARK  117  A    between atoms: _282  and  _284
REMARK  118  A    between atoms: _284  and  _285
REMARK  119  A    between atoms: _284  and  _287
REMARK  120  A    between atoms: _287  and  _288
REMARK  121  A    between atoms: _293  and  _295
REMARK  122  A    between atoms: _295  and  _296
REMARK  123  A    between atoms: _295  and  _298
REMARK  124  A    between atoms: _298  and  _299
REMARK  125  A    between atoms: _299  and  _300
REMARK  126  A    between atoms: _300  and  _301
REMARK  127  A    between atoms: _310  and  _312
REMARK  128  A    between atoms: _312  and  _313
REMARK  129  A    between atoms: _312  and  _315
REMARK  130  A    between atoms: _315  and  _316
REMARK  131  A    between atoms: _319  and  _321
REMARK  132  A    between atoms: _321  and  _322
REMARK  133  A    between atoms: _321  and  _324
REMARK  134  A    between atoms: _324  and  _325
REMARK  135  A    between atoms: _328  and  _330
REMARK  136  A    between atoms: _330  and  _331
REMARK  137  A    between atoms: _330  and  _333
REMARK  138  A    between atoms: _333  and  _334
REMARK  139  A    between atoms: _337  and  _339
REMARK  140  A    between atoms: _339  and  _340
REMARK  141  A    between atoms: _339  and  _342
REMARK  142  A    between atoms: _342  and  _343
REMARK  143  A    between atoms: _346  and  _348
REMARK  144  A    between atoms: _348  and  _349
REMARK  145  A    between atoms: _348  and  _351
REMARK  146  A    between atoms: _351  and  _352
REMARK  147  A    between atoms: _355  and  _357
REMARK  148  A    between atoms: _357  and  _358
REMARK  149  A    between atoms: _360  and  _362
REMARK  150  A    between atoms: _362  and  _363
REMARK  151  A    between atoms: _366  and  _368
REMARK  152  A    between atoms: _368  and  _369
REMARK  153  A    between atoms: _368  and  _371
REMARK  154  A    between atoms: _371  and  _372
REMARK  155  A    between atoms: _375  and  _377
REMARK  156  A    between atoms: _377  and  _378
REMARK  157  A    between atoms: _377  and  _380
REMARK  158  A    between atoms: _380  and  _381
REMARK  159  A    between atoms: _384  and  _386
REMARK  160  A    between atoms: _386  and  _387
REMARK  161  A    between atoms: _386  and  _389
REMARK  162  A    between atoms: _389  and  _390
REMARK  163  A    between atoms: _393  and  _395
REMARK  164  A    between atoms: _395  and  _396
REMARK  165  A    between atoms: _395  and  _398
REMARK  166  A    between atoms: _401  and  _403
REMARK  167  A    between atoms: _403  and  _404
REMARK  168  A    between atoms: _403  and  _406
REMARK  169  A    between atoms: _406  and  _407
REMARK  170  A    between atoms: _407  and  _408
REMARK  171  A    between atoms: _408  and  _409
REMARK  172  A    between atoms: _409  and  _410
REMARK  173  A    between atoms: _414  and  _416
REMARK  174  A    between atoms: _416  and  _417
REMARK  175  A    between atoms: _416  and  _419
REMARK  176  A    between atoms: _419  and  _420
REMARK  177  A    between atoms: _420  and  _421
REMARK  178  A    between atoms: _423  and  _425
REMARK  179  A    between atoms: _425  and  _426
REMARK  180  A    between atoms: _425  and  _428
REMARK  181  A    between atoms: _428  and  _429
REMARK  182  A    between atoms: _432  and  _434
REMARK  183  A    between atoms: _434  and  _435
REMARK  184  A    between atoms: _437  and  _439
REMARK  185  A    between atoms: _439  and  _440
REMARK  186  A    between atoms: _442  and  _444
REMARK  187  A    between atoms: _444  and  _445
REMARK  188  A    between atoms: _444  and  _447
REMARK  189  A    between atoms: _447  and  _448
REMARK  190  A    between atoms: _451  and  _453
REMARK  191  A    between atoms: _453  and  _454
REMARK  192  A    between atoms: _456  and  _458
REMARK  193  A    between atoms: _458  and  _459
REMARK  194  A    between atoms: _461  and  _463
REMARK  195  A    between atoms: _463  and  _464
REMARK  196  A    between atoms: _463  and  _466
REMARK  197  A    between atoms: _466  and  _467
REMARK  198  A    between atoms: _473  and  _475
REMARK  199  A    between atoms: _475  and  _476
REMARK  200  A    between atoms: _475  and  _478
REMARK  201  A    between atoms: _478  and  _479
REMARK  202  A    between atoms: _482  and  _484
REMARK  203  A    between atoms: _484  and  _485
REMARK  204  A    between atoms: _484  and  _487
REMARK  205  A    between atoms: _490  and  _492
REMARK  206  A    between atoms: _492  and  _493
REMARK  207  A    between atoms: _492  and  _495
REMARK  208  A    between atoms: _495  and  _496
REMARK  209  A    between atoms: _499  and  _501
REMARK  210  A    between atoms: _501  and  _502
REMARK  211  A    between atoms: _501  and  _504
REMARK  212  A    between atoms: _504  and  _505
REMARK  213  A    between atoms: _509  and  _510
REMARK  214  A    between atoms: _515  and  _517
REMARK  215  A    between atoms: _517  and  _518
REMARK  216  A    between atoms: _517  and  _520
REMARK  217  A    between atoms: _523  and  _525
REMARK  218  A    between atoms: _525  and  _526
REMARK  219  A    between atoms: _525  and  _528
REMARK  220  A    between atoms: _528  and  _529
REMARK  221  A    between atoms: _534  and  _536
REMARK  222  A    between atoms: _536  and  _537
REMARK  223  A    between atoms: _536  and  _539
REMARK  224  A    between atoms: _539  and  _540
REMARK  225  A    between atoms: _543  and  _545
REMARK  226  A    between atoms: _545  and  _546
REMARK  227  A    between atoms: _545  and  _548
REMARK  228  A    between atoms: _548  and  _549
REMARK  229  A    between atoms: _552  and  _554
REMARK  230  A    between atoms: _554  and  _555
REMARK  231  A    between atoms: _557  and  _559
REMARK  232  A    between atoms: _559  and  _560
REMARK  233  A    between atoms: _559  and  _562
REMARK  234  A    between atoms: _562  and  _563
REMARK  235  A    between atoms: _563  and  _564
REMARK  236  A    between atoms: _564  and  _565
REMARK  237  A    between atoms: _574  and  _576
REMARK  238  A    between atoms: _576  and  _577
REMARK  239  A    between atoms: _576  and  _579
REMARK  240  A    between atoms: _579  and  _580
REMARK                            x       y       z     vdW  Elec       q    Type
REMARK                         _______ _______ _______ _____ _____    ______ ____
ROOT
ATOM      1  O   HOH     1       8.903  21.214  13.685  0.00  0.00    +0.000 OA
ENDROOT
TORSDOF 0
REMARK  Name = ../refined-set-2016/3kdc/3kdc_pocket.pdb
REMARK  240 active torsions:
REMARK  status: ('A' for Active; 'I' for Inactive)
REMARK    1  A    between atoms: _1  and  _3
REMARK    2  A    between atoms: _3  and  _4
REMARK    3  A    between atoms: _3  and  _6
REMARK    4  A    between atoms: _6  and  _7
REMARK    5  A    between atoms: _7  and  _8
REMARK    6  A    between atoms: _8  and  _9
REMARK    7  A    between atoms: _18  and  _20
REMARK    8  A    between atoms: _20  and  _21
REMARK    9  A    between atoms: _20  and  _23
REMARK   10  A    between atoms: _23  and  _24
REMARK   11  A    between atoms: _27  and  _29
REMARK   12  A    between atoms: _29  and  _30
REMARK   13  A    between atoms: _29  and  _32
REMARK   14  A    between atoms: _32  and  _33
REMARK   15  A    between atoms: _36  and  _38
REMARK   16  A    between atoms: _38  and  _39
REMARK   17  A    between atoms: _38  and  _41
REMARK   18  A    between atoms: _41  and  _42
REMARK   19  A    between atoms: _45  and  _47
REMARK   20  A    between atoms: _47  and  _48
REMARK   21  A    between atoms: _47  and  _50
REMARK   22  A    between atoms: _50  and  _51
REMARK   23  A    between atoms: _54  and  _56
REMARK   24  A    between atoms: _56  and  _57
REMARK   25  A    between atoms: _59  and  _61
REMARK   26  A    between atoms: _61  and  _62
REMARK   27  A    between atoms: _65  and  _67
REMARK   28  A    between atoms: _67  and  _68
REMARK   29  A    between atoms: _67  and  _70
REMARK   30  A    between atoms: _70  and  _71
REMARK   31  A    between atoms: _74  and  _76
REMARK   32  A    between atoms: _76  and  _77
REMARK   33  A    between atoms: _76  and  _79
REMARK   34  A    between atoms: _79  and  _80
REMARK   35  A    between atoms: _83  and  _85
REMARK   36  A    between atoms: _85  and  _86
REMARK   37  A    between atoms: _85  and  _88
REMARK   38  A    between atoms: _88  and  _89
REMARK   39  A    between atoms: _92  and  _94
REMARK   40  A    between atoms: _94  and  _95
REMARK   41  A    between atoms: _94  and  _97
REMARK   42  A    between atoms: _100  and  _102
REMARK   43  A    between atoms: _102  and  _103
REMARK   44  A    between atoms: _102  and  _105
REMARK   45  A    between atoms: _105  and  _106
REMARK   46  A    between atoms: _109  and  _111
REMARK   47  A    between atoms: _111  and  _112
REMARK   48  A    between atoms: _111  and  _114
REMARK   49  A    between atoms: _114  and  _115
REMARK   50  A    between atoms: _115  and  _116
REMARK   51  A    between atoms: _116  and  _117
REMARK   52  A    between atoms: _117  and  _118
REMARK   53  A    between atoms: _122  and  _124
REMARK   54  A    between atoms: _124  and  _125
REMARK   55  A    between atoms: _124  and  _127
REMARK   56  A    between atoms: _127  and  _128
REMARK   57  A    between atoms: _128  and  _129
REMARK   58  A    between atoms: _131  and  _133
REMARK   59  A    between atoms: _133  and  _134
REMARK   60  A    between atoms: _133  and  _136
REMARK   61  A    between atoms: _136  and  _137
REMARK   62  A    between atoms: _140  and  _142
REMARK   63  A    between atoms: _142  and  _143
REMARK   64  A    between atoms: _145  and  _147
REMARK   65  A    between atoms: _147  and  _148
REMARK   66  A    between atoms: _150  and  _152
REMARK   67  A    between atoms: _152  and  _153
REMARK   68  A    between atoms: _152  and  _155
REMARK   69  A    between atoms: _155  and  _156
REMARK   70  A    between atoms: _159  and  _161
REMARK   71  A    between atoms: _161  and  _162
REMARK   72  A    between atoms: _164  and  _166
REMARK   73  A    between atoms: _166  and  _167
REMARK   74  A    between atoms: _169  and  _171
REMARK   75  A    between atoms: _171  and  _172
REMARK   76  A    between atoms: _171  and  _174
REMARK   77  A    between atoms: _174  and  _175
REMARK   78  A    between atoms: _181  and  _183
REMARK   79  A    between atoms: _183  and  _184
REMARK   80  A    between atoms: _183  and  _186
REMARK   81  A    between atoms: _186  and  _187
REMARK   82  A    between atoms: _190  and  _192
REMARK   83  A    between atoms: _192  and  _193
REMARK   84  A    between atoms: _192  and  _195
REMARK   85  A    between atoms: _198  and  _200
REMARK   86  A    between atoms: _200  and  _201
REMARK   87  A    between atoms: _200  and  _203
REMARK   88  A    between atoms: _203  and  _204
REMARK   89  A    between atoms: _207  and  _209
REMARK   90  A    between atoms: _209  and  _210
REMARK   91  A    between atoms: _209  and  _212
REMARK   92  A    between atoms: _212  and  _213
REMARK   93  A    between atoms: _217  and  _218
REMARK   94  A    between atoms: _223  and  _225
REMARK   95  A    between atoms: _225  and  _226
REMARK   96  A    between atoms: _225  and  _228
REMARK   97  A    between atoms: _231  and  _233
REMARK   98  A    between atoms: _233  and  _234
REMARK   99  A    between atoms: _233  and  _236
REMARK  100  A    between atoms: _236  and  _237
REMARK  101  A    between atoms: _242  and  _244
REMARK  102  A    between atoms: _244  and  _245
REMARK  103  A    between atoms: _244  and  _247
REMARK  104  A    between atoms: _247  and  _248
REMARK  105  A    between atoms: _251  and  _253
REMARK  106  A    between atoms: _253  and  _254
REMARK  107  A    between atoms: _253  and  _256
REMARK  108  A    between atoms: _256  and  _257
REMARK  109  A    between atoms: _260  and  _262
REMARK  110  A    between atoms: _262  and  _263
REMARK  111  A    between atoms: _265  and  _267
REMARK  112  A    between atoms: _267  and  _268
REMARK  113  A    between atoms: _267  and  _270
REMARK  114  A    between atoms: _270  and  _271
REMARK  115  A    between atoms: _271  and  _272
REMARK  116  A    between atoms: _272  and  _273
REMARK  117  A    between atoms: _282  and  _284
REMARK  118  A    between atoms: _284  and  _285
REMARK  119  A    between atoms: _284  and  _287
REMARK  120  A    between atoms: _287  and  _288
REMARK  121  A    between atoms: _293  and  _295
REMARK  122  A    between atoms: _295  and  _296
REMARK  123  A    between atoms: _295  and  _298
REMARK  124  A    between atoms: _298  and  _299
REMARK  125  A    between atoms: _299  and  _300
REMARK  126  A    between atoms: _300  and  _301
REMARK  127  A    between atoms: _310  and  _312
REMARK  128  A    between atoms: _312  and  _313
REMARK  129  A    between atoms: _312  and  _315
REMARK  130  A    between atoms: _315  and  _316
REMARK  131  A    between atoms: _319  and  _321
REMARK  132  A    between atoms: _321  and  _322
REMARK  133  A    between atoms: _321  and  _324
REMARK  134  A    between atoms: _324  and  _325
REMARK  135  A    between atoms: _328  and  _330
REMARK  136  A    between atoms: _330  and  _331
REMARK  137  A    between atoms: _330  and  _333
REMARK  138  A    between atoms: _333  and  _334
REMARK  139  A    between atoms: _337  and  _339
REMARK  140  A    between atoms: _339  and  _340
REMARK  141  A    between atoms: _339  and  _342
REMARK  142  A    between atoms: _342  and  _343
REMARK  143  A    between atoms: _346  and  _348
REMARK  144  A    between atoms: _348  and  _349
REMARK  145  A    between atoms: _348  and  _351
REMARK  146  A    between atoms: _351  and  _352
REMARK  147  A    between atoms: _355  and  _357
REMARK  148  A    between atoms: _357  and  _358
REMARK  149  A    between atoms: _360  and  _362
REMARK  150  A    between atoms: _362  and  _363
REMARK  151  A    between atoms: _366  and  _368
REMARK  152  A    between atoms: _368  and  _369
REMARK  153  A    between atoms: _368  and  _371
REMARK  154  A    between atoms: _371  and  _372
REMARK  155  A    between atoms: _375  and  _377
REMARK  156  A    between atoms: _377  and  _378
REMARK  157  A    between atoms: _377  and  _380
REMARK  158  A    between atoms: _380  and  _381
REMARK  159  A    between atoms: _384  and  _386
REMARK  160  A    between atoms: _386  and  _387
REMARK  161  A    between atoms: _386  and  _389
REMARK  162  A    between atoms: _389  and  _390
REMARK  163  A    between atoms: _393  and  _395
REMARK  164  A    between atoms: _395  and  _396
REMARK  165  A    between atoms: _395  and  _398
REMARK  166  A    between atoms: _401  and  _403
REMARK  167  A    between atoms: _403  and  _404
REMARK  168  A    between atoms: _403  and  _406
REMARK  169  A    between atoms: _406  and  _407
REMARK  170  A    between atoms: _407  and  _408
REMARK  171  A    between atoms: _408  and  _409
REMARK  172  A    between atoms: _409  and  _410
REMARK  173  A    between atoms: _414  and  _416
REMARK  174  A    between atoms: _416  and  _417
REMARK  175  A    between atoms: _416  and  _419
REMARK  176  A    between atoms: _419  and  _420
REMARK  177  A    between atoms: _420  and  _421
REMARK  178  A    between atoms: _423  and  _425
REMARK  179  A    between atoms: _425  and  _426
REMARK  180  A    between atoms: _425  and  _428
REMARK  181  A    between atoms: _428  and  _429
REMARK  182  A    between atoms: _432  and  _434
REMARK  183  A    between atoms: _434  and  _435
REMARK  184  A    between atoms: _437  and  _439
REMARK  185  A    between atoms: _439  and  _440
REMARK  186  A    between atoms: _442  and  _444
REMARK  187  A    between atoms: _444  and  _445
REMARK  188  A    between atoms: _444  and  _447
REMARK  189  A    between atoms: _447  and  _448
REMARK  190  A    between atoms: _451  and  _453
REMARK  191  A    between atoms: _453  and  _454
REMARK  192  A    between atoms: _456  and  _458
REMARK  193  A    between atoms: _458  and  _459
REMARK  194  A    between atoms: _461  and  _463
REMARK  195  A    between atoms: _463  and  _464
REMARK  196  A    between atoms: _463  and  _466
REMARK  197  A    between atoms: _466  and  _467
REMARK  198  A    between atoms: _473  and  _475
REMARK  199  A    between atoms: _475  and  _476
REMARK  200  A    between atoms: _475  and  _478
REMARK  201  A    between atoms: _478  and  _479
REMARK  202  A    between atoms: _482  and  _484
REMARK  203  A    between atoms: _484  and  _485
REMARK  204  A    between atoms: _484  and  _487
REMARK  205  A    between atoms: _490  and  _492
REMARK  206  A    between atoms: _492  and  _493
REMARK  207  A    between atoms: _492  and  _495
REMARK  208  A    between atoms: _495  and  _496
REMARK  209  A    between atoms: _499  and  _501
REMARK  210  A    between atoms: _501  and  _502
REMARK  211  A    between atoms: _501  and  _504
REMARK  212  A    between atoms: _504  and  _505
REMARK  213  A    between atoms: _509  and  _510
REMARK  214  A    between atoms: _515  and  _517
REMARK  215  A    between atoms: _517  and  _518
REMARK  216  A    between atoms: _517  and  _520
REMARK  217  A    between atoms: _523  and  _525
REMARK  218  A    between atoms: _525  and  _526
REMARK  219  A    between atoms: _525  and  _528
REMARK  220  A    between atoms: _528  and  _529
REMARK  221  A    between atoms: _534  and  _536
REMARK  222  A    between atoms: _536  and  _537
REMARK  223  A    between atoms: _536  and  _539
REMARK  224  A    between atoms: _539  and  _540
REMARK  225  A    between atoms: _543  and  _545
REMARK  226  A    between atoms: _545  and  _546
REMARK  227  A    between atoms: _545  and  _548
REMARK  228  A    between atoms: _548  and  _549
REMARK  229  A    between atoms: _552  and  _554
REMARK  230  A    between atoms: _554  and  _555
REMARK  231  A    between atoms: _557  and  _559
REMARK  232  A    between atoms: _559  and  _560
REMARK  233  A    between atoms: _559  and  _562
REMARK  234  A    between atoms: _562  and  _563
REMARK  235  A    between atoms: _563  and  _564
REMARK  236  A    between atoms: _564  and  _565
REMARK  237  A    between atoms: _574  and  _576
REMARK  238  A    between atoms: _576  and  _577
REMARK  239  A    between atoms: _576  and  _579
REMARK  240  A    between atoms: _579  and  _580
REMARK                            x       y       z     vdW  Elec       q    Type
REMARK                         _______ _______ _______ _____ _____    ______ ____
ROOT
ATOM      1  O   HOH     1       7.188  22.807   8.506  0.00  0.00    +0.000 OA
ENDROOT
TORSDOF 0
REMARK  Name = ../refined-set-2016/3kdc/3kdc_pocket.pdb
REMARK  240 active torsions:
REMARK  status: ('A' for Active; 'I' for Inactive)
REMARK    1  A    between atoms: _1  and  _3
REMARK    2  A    between atoms: _3  and  _4
REMARK    3  A    between atoms: _3  and  _6
REMARK    4  A    between atoms: _6  and  _7
REMARK    5  A    between atoms: _7  and  _8
REMARK    6  A    between atoms: _8  and  _9
REMARK    7  A    between atoms: _18  and  _20
REMARK    8  A    between atoms: _20  and  _21
REMARK    9  A    between atoms: _20  and  _23
REMARK   10  A    between atoms: _23  and  _24
REMARK   11  A    between atoms: _27  and  _29
REMARK   12  A    between atoms: _29  and  _30
REMARK   13  A    between atoms: _29  and  _32
REMARK   14  A    between atoms: _32  and  _33
REMARK   15  A    between atoms: _36  and  _38
REMARK   16  A    between atoms: _38  and  _39
REMARK   17  A    between atoms: _38  and  _41
REMARK   18  A    between atoms: _41  and  _42
REMARK   19  A    between atoms: _45  and  _47
REMARK   20  A    between atoms: _47  and  _48
REMARK   21  A    between atoms: _47  and  _50
REMARK   22  A    between atoms: _50  and  _51
REMARK   23  A    between atoms: _54  and  _56
REMARK   24  A    between atoms: _56  and  _57
REMARK   25  A    between atoms: _59  and  _61
REMARK   26  A    between atoms: _61  and  _62
REMARK   27  A    between atoms: _65  and  _67
REMARK   28  A    between atoms: _67  and  _68
REMARK   29  A    between atoms: _67  and  _70
REMARK   30  A    between atoms: _70  and  _71
REMARK   31  A    between atoms: _74  and  _76
REMARK   32  A    between atoms: _76  and  _77
REMARK   33  A    between atoms: _76  and  _79
REMARK   34  A    between atoms: _79  and  _80
REMARK   35  A    between atoms: _83  and  _85
REMARK   36  A    between atoms: _85  and  _86
REMARK   37  A    between atoms: _85  and  _88
REMARK   38  A    between atoms: _88  and  _89
REMARK   39  A    between atoms: _92  and  _94
REMARK   40  A    between atoms: _94  and  _95
REMARK   41  A    between atoms: _94  and  _97
REMARK   42  A    between atoms: _100  and  _102
REMARK   43  A    between atoms: _102  and  _103
REMARK   44  A    between atoms: _102  and  _105
REMARK   45  A    between atoms: _105  and  _106
REMARK   46  A    between atoms: _109  and  _111
REMARK   47  A    between atoms: _111  and  _112
REMARK   48  A    between atoms: _111  and  _114
REMARK   49  A    between atoms: _114  and  _115
REMARK   50  A    between atoms: _115  and  _116
REMARK   51  A    between atoms: _116  and  _117
REMARK   52  A    between atoms: _117  and  _118
REMARK   53  A    between atoms: _122  and  _124
REMARK   54  A    between atoms: _124  and  _125
REMARK   55  A    between atoms: _124  and  _127
REMARK   56  A    between atoms: _127  and  _128
REMARK   57  A    between atoms: _128  and  _129
REMARK   58  A    between atoms: _131  and  _133
REMARK   59  A    between atoms: _133  and  _134
REMARK   60  A    between atoms: _133  and  _136
REMARK   61  A    between atoms: _136  and  _137
REMARK   62  A    between atoms: _140  and  _142
REMARK   63  A    between atoms: _142  and  _143
REMARK   64  A    between atoms: _145  and  _147
REMARK   65  A    between atoms: _147  and  _148
REMARK   66  A    between atoms: _150  and  _152
REMARK   67  A    between atoms: _152  and  _153
REMARK   68  A    between atoms: _152  and  _155
REMARK   69  A    between atoms: _155  and  _156
REMARK   70  A    between atoms: _159  and  _161
REMARK   71  A    between atoms: _161  and  _162
REMARK   72  A    between atoms: _164  and  _166
REMARK   73  A    between atoms: _166  and  _167
REMARK   74  A    between atoms: _169  and  _171
REMARK   75  A    between atoms: _171  and  _172
REMARK   76  A    between atoms: _171  and  _174
REMARK   77  A    between atoms: _174  and  _175
REMARK   78  A    between atoms: _181  and  _183
REMARK   79  A    between atoms: _183  and  _184
REMARK   80  A    between atoms: _183  and  _186
REMARK   81  A    between atoms: _186  and  _187
REMARK   82  A    between atoms: _190  and  _192
REMARK   83  A    between atoms: _192  and  _193
REMARK   84  A    between atoms: _192  and  _195
REMARK   85  A    between atoms: _198  and  _200
REMARK   86  A    between atoms: _200  and  _201
REMARK   87  A    between atoms: _200  and  _203
REMARK   88  A    between atoms: _203  and  _204
REMARK   89  A    between atoms: _207  and  _209
REMARK   90  A    between atoms: _209  and  _210
REMARK   91  A    between atoms: _209  and  _212
REMARK   92  A    between atoms: _212  and  _213
REMARK   93  A    between atoms: _217  and  _218
REMARK   94  A    between atoms: _223  and  _225
REMARK   95  A    between atoms: _225  and  _226
REMARK   96  A    between atoms: _225  and  _228
REMARK   97  A    between atoms: _231  and  _233
REMARK   98  A    between atoms: _233  and  _234
REMARK   99  A    between atoms: _233  and  _236
REMARK  100  A    between atoms: _236  and  _237
REMARK  101  A    between atoms: _242  and  _244
REMARK  102  A    between atoms: _244  and  _245
REMARK  103  A    between atoms: _244  and  _247
REMARK  104  A    between atoms: _247  and  _248
REMARK  105  A    between atoms: _251  and  _253
REMARK  106  A    between atoms: _253  and  _254
REMARK  107  A    between atoms: _253  and  _256
REMARK  108  A    between atoms: _256  and  _257
REMARK  109  A    between atoms: _260  and  _262
REMARK  110  A    between atoms: _262  and  _263
REMARK  111  A    between atoms: _265  and  _267
REMARK  112  A    between atoms: _267  and  _268
REMARK  113  A    between atoms: _267  and  _270
REMARK  114  A    between atoms: _270  and  _271
REMARK  115  A    between atoms: _271  and  _272
REMARK  116  A    between atoms: _272  and  _273
REMARK  117  A    between atoms: _282  and  _284
REMARK  118  A    between atoms: _284  and  _285
REMARK  119  A    between atoms: _284  and  _287
REMARK  120  A    between atoms: _287  and  _288
REMARK  121  A    between atoms: _293  and  _295
REMARK  122  A    between atoms: _295  and  _296
REMARK  123  A    between atoms: _295  and  _298
REMARK  124  A    between atoms: _298  and  _299
REMARK  125  A    between atoms: _299  and  _300
REMARK  126  A    between atoms: _300  and  _301
REMARK  127  A    between atoms: _310  and  _312
REMARK  128  A    between atoms: _312  and  _313
REMARK  129  A    between atoms: _312  and  _315
REMARK  130  A    between atoms: _315  and  _316
REMARK  131  A    between atoms: _319  and  _321
REMARK  132  A    between atoms: _321  and  _322
REMARK  133  A    between atoms: _321  and  _324
REMARK  134  A    between atoms: _324  and  _325
REMARK  135  A    between atoms: _328  and  _330
REMARK  136  A    between atoms: _330  and  _331
REMARK  137  A    between atoms: _330  and  _333
REMARK  138  A    between atoms: _333  and  _334
REMARK  139  A    between atoms: _337  and  _339
REMARK  140  A    between atoms: _339  and  _340
REMARK  141  A    between atoms: _339  and  _342
REMARK  142  A    between atoms: _342  and  _343
REMARK  143  A    between atoms: _346  and  _348
REMARK  144  A    between atoms: _348  and  _349
REMARK  145  A    between atoms: _348  and  _351
REMARK  146  A    between atoms: _351  and  _352
REMARK  147  A    between atoms: _355  and  _357
REMARK  148  A    between atoms: _357  and  _358
REMARK  149  A    between atoms: _360  and  _362
REMARK  150  A    between atoms: _362  and  _363
REMARK  151  A    between atoms: _366  and  _368
REMARK  152  A    between atoms: _368  and  _369
REMARK  153  A    between atoms: _368  and  _371
REMARK  154  A    between atoms: _371  and  _372
REMARK  155  A    between atoms: _375  and  _377
REMARK  156  A    between atoms: _377  and  _378
REMARK  157  A    between atoms: _377  and  _380
REMARK  158  A    between atoms: _380  and  _381
REMARK  159  A    between atoms: _384  and  _386
REMARK  160  A    between atoms: _386  and  _387
REMARK  161  A    between atoms: _386  and  _389
REMARK  162  A    between atoms: _389  and  _390
REMARK  163  A    between atoms: _393  and  _395
REMARK  164  A    between atoms: _395  and  _396
REMARK  165  A    between atoms: _395  and  _398
REMARK  166  A    between atoms: _401  and  _403
REMARK  167  A    between atoms: _403  and  _404
REMARK  168  A    between atoms: _403  and  _406
REMARK  169  A    between atoms: _406  and  _407
REMARK  170  A    between atoms: _407  and  _408
REMARK  171  A    between atoms: _408  and  _409
REMARK  172  A    between atoms: _409  and  _410
REMARK  173  A    between atoms: _414  and  _416
REMARK  174  A    between atoms: _416  and  _417
REMARK  175  A    between atoms: _416  and  _419
REMARK  176  A    between atoms: _419  and  _420
REMARK  177  A    between atoms: _420  and  _421
REMARK  178  A    between atoms: _423  and  _425
REMARK  179  A    between atoms: _425  and  _426
REMARK  180  A    between atoms: _425  and  _428
REMARK  181  A    between atoms: _428  and  _429
REMARK  182  A    between atoms: _432  and  _434
REMARK  183  A    between atoms: _434  and  _435
REMARK  184  A    between atoms: _437  and  _439
REMARK  185  A    between atoms: _439  and  _440
REMARK  186  A    between atoms: _442  and  _444
REMARK  187  A    between atoms: _444  and  _445
REMARK  188  A    between atoms: _444  and  _447
REMARK  189  A    between atoms: _447  and  _448
REMARK  190  A    between atoms: _451  and  _453
REMARK  191  A    between atoms: _453  and  _454
REMARK  192  A    between atoms: _456  and  _458
REMARK  193  A    between atoms: _458  and  _459
REMARK  194  A    between atoms: _461  and  _463
REMARK  195  A    between atoms: _463  and  _464
REMARK  196  A    between atoms: _463  and  _466
REMARK  197  A    between atoms: _466  and  _467
REMARK  198  A    between atoms: _473  and  _475
REMARK  199  A    between atoms: _475  and  _476
REMARK  200  A    between atoms: _475  and  _478
REMARK  201  A    between atoms: _478  and  _479
REMARK  202  A    between atoms: _482  and  _484
REMARK  203  A    between atoms: _484  and  _485
REMARK  204  A    between atoms: _484  and  _487
REMARK  205  A    between atoms: _490  and  _492
REMARK  206  A    between atoms: _492  and  _493
REMARK  207  A    between atoms: _492  and  _495
REMARK  208  A    between atoms: _495  and  _496
REMARK  209  A    between atoms: _499  and  _501
REMARK  210  A    between atoms: _501  and  _502
REMARK  211  A    between atoms: _501  and  _504
REMARK  212  A    between atoms: _504  and  _505
REMARK  213  A    between atoms: _509  and  _510
REMARK  214  A    between atoms: _515  and  _517
REMARK  215  A    between atoms: _517  and  _518
REMARK  216  A    between atoms: _517  and  _520
REMARK  217  A    between atoms: _523  and  _525
REMARK  218  A    between atoms: _525  and  _526
REMARK  219  A    between atoms: _525  and  _528
REMARK  220  A    between atoms: _528  and  _529
REMARK  221  A    between atoms: _534  and  _536
REMARK  222  A    between atoms: _536  and  _537
REMARK  223  A    between atoms: _536  and  _539
REMARK  224  A    between atoms: _539  and  _540
REMARK  225  A    between atoms: _543  and  _545
REMARK  226  A    between atoms: _545  and  _546
REMARK  227  A    between atoms: _545  and  _548
REMARK  228  A    between atoms: _548  and  _549
REMARK  229  A    between atoms: _552  and  _554
REMARK  230  A    between atoms: _554  and  _555
REMARK  231  A    between atoms: _557  and  _559
REMARK  232  A    between atoms: _559  and  _560
REMARK  233  A    between atoms: _559  and  _562
REMARK  234  A    between atoms: _562  and  _563
REMARK  235  A    between atoms: _563  and  _564
REMARK  236  A    between atoms: _564  and  _565
REMARK  237  A    between atoms: _574  and  _576
REMARK  238  A    between atoms: _576  and  _577
REMARK  239  A    between atoms: _576  and  _579
REMARK  240  A    between atoms: _579  and  _580
REMARK                            x       y       z     vdW  Elec       q    Type
REMARK                         _______ _______ _______ _____ _____    ______ ____
ROOT
ATOM      1  O   HOH     1       7.545  16.862  12.554  0.00  0.00    +0.000 OA
ENDROOT
TORSDOF 0
REMARK  Name = ../refined-set-2016/3kdc/3kdc_pocket.pdb
REMARK  240 active torsions:
REMARK  status: ('A' for Active; 'I' for Inactive)
REMARK    1  A    between atoms: _1  and  _3
REMARK    2  A    between atoms: _3  and  _4
REMARK    3  A    between atoms: _3  and  _6
REMARK    4  A    between atoms: _6  and  _7
REMARK    5  A    between atoms: _7  and  _8
REMARK    6  A    between atoms: _8  and  _9
REMARK    7  A    between atoms: _18  and  _20
REMARK    8  A    between atoms: _20  and  _21
REMARK    9  A    between atoms: _20  and  _23
REMARK   10  A    between atoms: _23  and  _24
REMARK   11  A    between atoms: _27  and  _29
REMARK   12  A    between atoms: _29  and  _30
REMARK   13  A    between atoms: _29  and  _32
REMARK   14  A    between atoms: _32  and  _33
REMARK   15  A    between atoms: _36  and  _38
REMARK   16  A    between atoms: _38  and  _39
REMARK   17  A    between atoms: _38  and  _41
REMARK   18  A    between atoms: _41  and  _42
REMARK   19  A    between atoms: _45  and  _47
REMARK   20  A    between atoms: _47  and  _48
REMARK   21  A    between atoms: _47  and  _50
REMARK   22  A    between atoms: _50  and  _51
REMARK   23  A    between atoms: _54  and  _56
REMARK   24  A    between atoms: _56  and  _57
REMARK   25  A    between atoms: _59  and  _61
REMARK   26  A    between atoms: _61  and  _62
REMARK   27  A    between atoms: _65  and  _67
REMARK   28  A    between atoms: _67  and  _68
REMARK   29  A    between atoms: _67  and  _70
REMARK   30  A    between atoms: _70  and  _71
REMARK   31  A    between atoms: _74  and  _76
REMARK   32  A    between atoms: _76  and  _77
REMARK   33  A    between atoms: _76  and  _79
REMARK   34  A    between atoms: _79  and  _80
REMARK   35  A    between atoms: _83  and  _85
REMARK   36  A    between atoms: _85  and  _86
REMARK   37  A    between atoms: _85  and  _88
REMARK   38  A    between atoms: _88  and  _89
REMARK   39  A    between atoms: _92  and  _94
REMARK   40  A    between atoms: _94  and  _95
REMARK   41  A    between atoms: _94  and  _97
REMARK   42  A    between atoms: _100  and  _102
REMARK   43  A    between atoms: _102  and  _103
REMARK   44  A    between atoms: _102  and  _105
REMARK   45  A    between atoms: _105  and  _106
REMARK   46  A    between atoms: _109  and  _111
REMARK   47  A    between atoms: _111  and  _112
REMARK   48  A    between atoms: _111  and  _114
REMARK   49  A    between atoms: _114  and  _115
REMARK   50  A    between atoms: _115  and  _116
REMARK   51  A    between atoms: _116  and  _117
REMARK   52  A    between atoms: _117  and  _118
REMARK   53  A    between atoms: _122  and  _124
REMARK   54  A    between atoms: _124  and  _125
REMARK   55  A    between atoms: _124  and  _127
REMARK   56  A    between atoms: _127  and  _128
REMARK   57  A    between atoms: _128  and  _129
REMARK   58  A    between atoms: _131  and  _133
REMARK   59  A    between atoms: _133  and  _134
REMARK   60  A    between atoms: _133  and  _136
REMARK   61  A    between atoms: _136  and  _137
REMARK   62  A    between atoms: _140  and  _142
REMARK   63  A    between atoms: _142  and  _143
REMARK   64  A    between atoms: _145  and  _147
REMARK   65  A    between atoms: _147  and  _148
REMARK   66  A    between atoms: _150  and  _152
REMARK   67  A    between atoms: _152  and  _153
REMARK   68  A    between atoms: _152  and  _155
REMARK   69  A    between atoms: _155  and  _156
REMARK   70  A    between atoms: _159  and  _161
REMARK   71  A    between atoms: _161  and  _162
REMARK   72  A    between atoms: _164  and  _166
REMARK   73  A    between atoms: _166  and  _167
REMARK   74  A    between atoms: _169  and  _171
REMARK   75  A    between atoms: _171  and  _172
REMARK   76  A    between atoms: _171  and  _174
REMARK   77  A    between atoms: _174  and  _175
REMARK   78  A    between atoms: _181  and  _183
REMARK   79  A    between atoms: _183  and  _184
REMARK   80  A    between atoms: _183  and  _186
REMARK   81  A    between atoms: _186  and  _187
REMARK   82  A    between atoms: _190  and  _192
REMARK   83  A    between atoms: _192  and  _193
REMARK   84  A    between atoms: _192  and  _195
REMARK   85  A    between atoms: _198  and  _200
REMARK   86  A    between atoms: _200  and  _201
REMARK   87  A    between atoms: _200  and  _203
REMARK   88  A    between atoms: _203  and  _204
REMARK   89  A    between atoms: _207  and  _209
REMARK   90  A    between atoms: _209  and  _210
REMARK   91  A    between atoms: _209  and  _212
REMARK   92  A    between atoms: _212  and  _213
REMARK   93  A    between atoms: _217  and  _218
REMARK   94  A    between atoms: _223  and  _225
REMARK   95  A    between atoms: _225  and  _226
REMARK   96  A    between atoms: _225  and  _228
REMARK   97  A    between atoms: _231  and  _233
REMARK   98  A    between atoms: _233  and  _234
REMARK   99  A    between atoms: _233  and  _236
REMARK  100  A    between atoms: _236  and  _237
REMARK  101  A    between atoms: _242  and  _244
REMARK  102  A    between atoms: _244  and  _245
REMARK  103  A    between atoms: _244  and  _247
REMARK  104  A    between atoms: _247  and  _248
REMARK  105  A    between atoms: _251  and  _253
REMARK  106  A    between atoms: _253  and  _254
REMARK  107  A    between atoms: _253  and  _256
REMARK  108  A    between atoms: _256  and  _257
REMARK  109  A    between atoms: _260  and  _262
REMARK  110  A    between atoms: _262  and  _263
REMARK  111  A    between atoms: _265  and  _267
REMARK  112  A    between atoms: _267  and  _268
REMARK  113  A    between atoms: _267  and  _270
REMARK  114  A    between atoms: _270  and  _271
REMARK  115  A    between atoms: _271  and  _272
REMARK  116  A    between atoms: _272  and  _273
REMARK  117  A    between atoms: _282  and  _284
REMARK  118  A    between atoms: _284  and  _285
REMARK  119  A    between atoms: _284  and  _287
REMARK  120  A    between atoms: _287  and  _288
REMARK  121  A    between atoms: _293  and  _295
REMARK  122  A    between atoms: _295  and  _296
REMARK  123  A    between atoms: _295  and  _298
REMARK  124  A    between atoms: _298  and  _299
REMARK  125  A    between atoms: _299  and  _300
REMARK  126  A    between atoms: _300  and  _301
REMARK  127  A    between atoms: _310  and  _312
REMARK  128  A    between atoms: _312  and  _313
REMARK  129  A    between atoms: _312  and  _315
REMARK  130  A    between atoms: _315  and  _316
REMARK  131  A    between atoms: _319  and  _321
REMARK  132  A    between atoms: _321  and  _322
REMARK  133  A    between atoms: _321  and  _324
REMARK  134  A    between atoms: _324  and  _325
REMARK  135  A    between atoms: _328  and  _330
REMARK  136  A    between atoms: _330  and  _331
REMARK  137  A    between atoms: _330  and  _333
REMARK  138  A    between atoms: _333  and  _334
REMARK  139  A    between atoms: _337  and  _339
REMARK  140  A    between atoms: _339  and  _340
REMARK  141  A    between atoms: _339  and  _342
REMARK  142  A    between atoms: _342  and  _343
REMARK  143  A    between atoms: _346  and  _348
REMARK  144  A    between atoms: _348  and  _349
REMARK  145  A    between atoms: _348  and  _351
REMARK  146  A    between atoms: _351  and  _352
REMARK  147  A    between atoms: _355  and  _357
REMARK  148  A    between atoms: _357  and  _358
REMARK  149  A    between atoms: _360  and  _362
REMARK  150  A    between atoms: _362  and  _363
REMARK  151  A    between atoms: _366  and  _368
REMARK  152  A    between atoms: _368  and  _369
REMARK  153  A    between atoms: _368  and  _371
REMARK  154  A    between atoms: _371  and  _372
REMARK  155  A    between atoms: _375  and  _377
REMARK  156  A    between atoms: _377  and  _378
REMARK  157  A    between atoms: _377  and  _380
REMARK  158  A    between atoms: _380  and  _381
REMARK  159  A    between atoms: _384  and  _386
REMARK  160  A    between atoms: _386  and  _387
REMARK  161  A    between atoms: _386  and  _389
REMARK  162  A    between atoms: _389  and  _390
REMARK  163  A    between atoms: _393  and  _395
REMARK  164  A    between atoms: _395  and  _396
REMARK  165  A    between atoms: _395  and  _398
REMARK  166  A    between atoms: _401  and  _403
REMARK  167  A    between atoms: _403  and  _404
REMARK  168  A    between atoms: _403  and  _406
REMARK  169  A    between atoms: _406  and  _407
REMARK  170  A    between atoms: _407  and  _408
REMARK  171  A    between atoms: _408  and  _409
REMARK  172  A    between atoms: _409  and  _410
REMARK  173  A    between atoms: _414  and  _416
REMARK  174  A    between atoms: _416  and  _417
REMARK  175  A    between atoms: _416  and  _419
REMARK  176  A    between atoms: _419  and  _420
REMARK  177  A    between atoms: _420  and  _421
REMARK  178  A    between atoms: _423  and  _425
REMARK  179  A    between atoms: _425  and  _426
REMARK  180  A    between atoms: _425  and  _428
REMARK  181  A    between atoms: _428  and  _429
REMARK  182  A    between atoms: _432  and  _434
REMARK  183  A    between atoms: _434  and  _435
REMARK  184  A    between atoms: _437  and  _439
REMARK  185  A    between atoms: _439  and  _440
REMARK  186  A    between atoms: _442  and  _444
REMARK  187  A    between atoms: _444  and  _445
REMARK  188  A    between atoms: _444  and  _447
REMARK  189  A    between atoms: _447  and  _448
REMARK  190  A    between atoms: _451  and  _453
REMARK  191  A    between atoms: _453  and  _454
REMARK  192  A    between atoms: _456  and  _458
REMARK  193  A    between atoms: _458  and  _459
REMARK  194  A    between atoms: _461  and  _463
REMARK  195  A    between atoms: _463  and  _464
REMARK  196  A    between atoms: _463  and  _466
REMARK  197  A    between atoms: _466  and  _467
REMARK  198  A    between atoms: _473  and  _475
REMARK  199  A    between atoms: _475  and  _476
REMARK  200  A    between atoms: _475  and  _478
REMARK  201  A    between atoms: _478  and  _479
REMARK  202  A    between atoms: _482  and  _484
REMARK  203  A    between atoms: _484  and  _485
REMARK  204  A    between atoms: _484  and  _487
REMARK  205  A    between atoms: _490  and  _492
REMARK  206  A    between atoms: _492  and  _493
REMARK  207  A    between atoms: _492  and  _495
REMARK  208  A    between atoms: _495  and  _496
REMARK  209  A    between atoms: _499  and  _501
REMARK  210  A    between atoms: _501  and  _502
REMARK  211  A    between atoms: _501  and  _504
REMARK  212  A    between atoms: _504  and  _505
REMARK  213  A    between atoms: _509  and  _510
REMARK  214  A    between atoms: _515  and  _517
REMARK  215  A    between atoms: _517  and  _518
REMARK  216  A    between atoms: _517  and  _520
REMARK  217  A    between atoms: _523  and  _525
REMARK  218  A    between atoms: _525  and  _526
REMARK  219  A    between atoms: _525  and  _528
REMARK  220  A    between atoms: _528  and  _529
REMARK  221  A    between atoms: _534  and  _536
REMARK  222  A    between atoms: _536  and  _537
REMARK  223  A    between atoms: _536  and  _539
REMARK  224  A    between atoms: _539  and  _540
REMARK  225  A    between atoms: _543  and  _545
REMARK  226  A    between atoms: _545  and  _546
REMARK  227  A    between atoms: _545  and  _548
REMARK  228  A    between atoms: _548  and  _549
REMARK  229  A    between atoms: _552  and  _554
REMARK  230  A    between atoms: _554  and  _555
REMARK  231  A    between atoms: _557  and  _559
REMARK  232  A    between atoms: _559  and  _560
REMARK  233  A    between atoms: _559  and  _562
REMARK  234  A    between atoms: _562  and  _563
REMARK  235  A    between atoms: _563  and  _564
REMARK  236  A    between atoms: _564  and  _565
REMARK  237  A    between atoms: _574  and  _576
REMARK  238  A    between atoms: _576  and  _577
REMARK  239  A    between atoms: _576  and  _579
REMARK  240  A    between atoms: _579  and  _580
REMARK                            x       y       z     vdW  Elec       q    Type
REMARK                         _______ _______ _______ _____ _____    ______ ____
ROOT
ATOM      1  O   HOH     1       8.945  17.790  10.658  0.00  0.00    +0.000 OA
ENDROOT
TORSDOF 0
REMARK  Name = ../refined-set-2016/3kdc/3kdc_pocket.pdb
REMARK  240 active torsions:
REMARK  status: ('A' for Active; 'I' for Inactive)
REMARK    1  A    between atoms: _1  and  _3
REMARK    2  A    between atoms: _3  and  _4
REMARK    3  A    between atoms: _3  and  _6
REMARK    4  A    between atoms: _6  and  _7
REMARK    5  A    between atoms: _7  and  _8
REMARK    6  A    between atoms: _8  and  _9
REMARK    7  A    between atoms: _18  and  _20
REMARK    8  A    between atoms: _20  and  _21
REMARK    9  A    between atoms: _20  and  _23
REMARK   10  A    between atoms: _23  and  _24
REMARK   11  A    between atoms: _27  and  _29
REMARK   12  A    between atoms: _29  and  _30
REMARK   13  A    between atoms: _29  and  _32
REMARK   14  A    between atoms: _32  and  _33
REMARK   15  A    between atoms: _36  and  _38
REMARK   16  A    between atoms: _38  and  _39
REMARK   17  A    between atoms: _38  and  _41
REMARK   18  A    between atoms: _41  and  _42
REMARK   19  A    between atoms: _45  and  _47
REMARK   20  A    between atoms: _47  and  _48
REMARK   21  A    between atoms: _47  and  _50
REMARK   22  A    between atoms: _50  and  _51
REMARK   23  A    between atoms: _54  and  _56
REMARK   24  A    between atoms: _56  and  _57
REMARK   25  A    between atoms: _59  and  _61
REMARK   26  A    between atoms: _61  and  _62
REMARK   27  A    between atoms: _65  and  _67
REMARK   28  A    between atoms: _67  and  _68
REMARK   29  A    between atoms: _67  and  _70
REMARK   30  A    between atoms: _70  and  _71
REMARK   31  A    between atoms: _74  and  _76
REMARK   32  A    between atoms: _76  and  _77
REMARK   33  A    between atoms: _76  and  _79
REMARK   34  A    between atoms: _79  and  _80
REMARK   35  A    between atoms: _83  and  _85
REMARK   36  A    between atoms: _85  and  _86
REMARK   37  A    between atoms: _85  and  _88
REMARK   38  A    between atoms: _88  and  _89
REMARK   39  A    between atoms: _92  and  _94
REMARK   40  A    between atoms: _94  and  _95
REMARK   41  A    between atoms: _94  and  _97
REMARK   42  A    between atoms: _100  and  _102
REMARK   43  A    between atoms: _102  and  _103
REMARK   44  A    between atoms: _102  and  _105
REMARK   45  A    between atoms: _105  and  _106
REMARK   46  A    between atoms: _109  and  _111
REMARK   47  A    between atoms: _111  and  _112
REMARK   48  A    between atoms: _111  and  _114
REMARK   49  A    between atoms: _114  and  _115
REMARK   50  A    between atoms: _115  and  _116
REMARK   51  A    between atoms: _116  and  _117
REMARK   52  A    between atoms: _117  and  _118
REMARK   53  A    between atoms: _122  and  _124
REMARK   54  A    between atoms: _124  and  _125
REMARK   55  A    between atoms: _124  and  _127
REMARK   56  A    between atoms: _127  and  _128
REMARK   57  A    between atoms: _128  and  _129
REMARK   58  A    between atoms: _131  and  _133
REMARK   59  A    between atoms: _133  and  _134
REMARK   60  A    between atoms: _133  and  _136
REMARK   61  A    between atoms: _136  and  _137
REMARK   62  A    between atoms: _140  and  _142
REMARK   63  A    between atoms: _142  and  _143
REMARK   64  A    between atoms: _145  and  _147
REMARK   65  A    between atoms: _147  and  _148
REMARK   66  A    between atoms: _150  and  _152
REMARK   67  A    between atoms: _152  and  _153
REMARK   68  A    between atoms: _152  and  _155
REMARK   69  A    between atoms: _155  and  _156
REMARK   70  A    between atoms: _159  and  _161
REMARK   71  A    between atoms: _161  and  _162
REMARK   72  A    between atoms: _164  and  _166
REMARK   73  A    between atoms: _166  and  _167
REMARK   74  A    between atoms: _169  and  _171
REMARK   75  A    between atoms: _171  and  _172
REMARK   76  A    between atoms: _171  and  _174
REMARK   77  A    between atoms: _174  and  _175
REMARK   78  A    between atoms: _181  and  _183
REMARK   79  A    between atoms: _183  and  _184
REMARK   80  A    between atoms: _183  and  _186
REMARK   81  A    between atoms: _186  and  _187
REMARK   82  A    between atoms: _190  and  _192
REMARK   83  A    between atoms: _192  and  _193
REMARK   84  A    between atoms: _192  and  _195
REMARK   85  A    between atoms: _198  and  _200
REMARK   86  A    between atoms: _200  and  _201
REMARK   87  A    between atoms: _200  and  _203
REMARK   88  A    between atoms: _203  and  _204
REMARK   89  A    between atoms: _207  and  _209
REMARK   90  A    between atoms: _209  and  _210
REMARK   91  A    between atoms: _209  and  _212
REMARK   92  A    between atoms: _212  and  _213
REMARK   93  A    between atoms: _217  and  _218
REMARK   94  A    between atoms: _223  and  _225
REMARK   95  A    between atoms: _225  and  _226
REMARK   96  A    between atoms: _225  and  _228
REMARK   97  A    between atoms: _231  and  _233
REMARK   98  A    between atoms: _233  and  _234
REMARK   99  A    between atoms: _233  and  _236
REMARK  100  A    between atoms: _236  and  _237
REMARK  101  A    between atoms: _242  and  _244
REMARK  102  A    between atoms: _244  and  _245
REMARK  103  A    between atoms: _244  and  _247
REMARK  104  A    between atoms: _247  and  _248
REMARK  105  A    between atoms: _251  and  _253
REMARK  106  A    between atoms: _253  and  _254
REMARK  107  A    between atoms: _253  and  _256
REMARK  108  A    between atoms: _256  and  _257
REMARK  109  A    between atoms: _260  and  _262
REMARK  110  A    between atoms: _262  and  _263
REMARK  111  A    between atoms: _265  and  _267
REMARK  112  A    between atoms: _267  and  _268
REMARK  113  A    between atoms: _267  and  _270
REMARK  114  A    between atoms: _270  and  _271
REMARK  115  A    between atoms: _271  and  _272
REMARK  116  A    between atoms: _272  and  _273
REMARK  117  A    between atoms: _282  and  _284
REMARK  118  A    between atoms: _284  and  _285
REMARK  119  A    between atoms: _284  and  _287
REMARK  120  A    between atoms: _287  and  _288
REMARK  121  A    between atoms: _293  and  _295
REMARK  122  A    between atoms: _295  and  _296
REMARK  123  A    between atoms: _295  and  _298
REMARK  124  A    between atoms: _298  and  _299
REMARK  125  A    between atoms: _299  and  _300
REMARK  126  A    between atoms: _300  and  _301
REMARK  127  A    between atoms: _310  and  _312
REMARK  128  A    between atoms: _312  and  _313
REMARK  129  A    between atoms: _312  and  _315
REMARK  130  A    between atoms: _315  and  _316
REMARK  131  A    between atoms: _319  and  _321
REMARK  132  A    between atoms: _321  and  _322
REMARK  133  A    between atoms: _321  and  _324
REMARK  134  A    between atoms: _324  and  _325
REMARK  135  A    between atoms: _328  and  _330
REMARK  136  A    between atoms: _330  and  _331
REMARK  137  A    between atoms: _330  and  _333
REMARK  138  A    between atoms: _333  and  _334
REMARK  139  A    between atoms: _337  and  _339
REMARK  140  A    between atoms: _339  and  _340
REMARK  141  A    between atoms: _339  and  _342
REMARK  142  A    between atoms: _342  and  _343
REMARK  143  A    between atoms: _346  and  _348
REMARK  144  A    between atoms: _348  and  _349
REMARK  145  A    between atoms: _348  and  _351
REMARK  146  A    between atoms: _351  and  _352
REMARK  147  A    between atoms: _355  and  _357
REMARK  148  A    between atoms: _357  and  _358
REMARK  149  A    between atoms: _360  and  _362
REMARK  150  A    between atoms: _362  and  _363
REMARK  151  A    between atoms: _366  and  _368
REMARK  152  A    between atoms: _368  and  _369
REMARK  153  A    between atoms: _368  and  _371
REMARK  154  A    between atoms: _371  and  _372
REMARK  155  A    between atoms: _375  and  _377
REMARK  156  A    between atoms: _377  and  _378
REMARK  157  A    between atoms: _377  and  _380
REMARK  158  A    between atoms: _380  and  _381
REMARK  159  A    between atoms: _384  and  _386
REMARK  160  A    between atoms: _386  and  _387
REMARK  161  A    between atoms: _386  and  _389
REMARK  162  A    between atoms: _389  and  _390
REMARK  163  A    between atoms: _393  and  _395
REMARK  164  A    between atoms: _395  and  _396
REMARK  165  A    between atoms: _395  and  _398
REMARK  166  A    between atoms: _401  and  _403
REMARK  167  A    between atoms: _403  and  _404
REMARK  168  A    between atoms: _403  and  _406
REMARK  169  A    between atoms: _406  and  _407
REMARK  170  A    between atoms: _407  and  _408
REMARK  171  A    between atoms: _408  and  _409
REMARK  172  A    between atoms: _409  and  _410
REMARK  173  A    between atoms: _414  and  _416
REMARK  174  A    between atoms: _416  and  _417
REMARK  175  A    between atoms: _416  and  _419
REMARK  176  A    between atoms: _419  and  _420
REMARK  177  A    between atoms: _420  and  _421
REMARK  178  A    between atoms: _423  and  _425
REMARK  179  A    between atoms: _425  and  _426
REMARK  180  A    between atoms: _425  and  _428
REMARK  181  A    between atoms: _428  and  _429
REMARK  182  A    between atoms: _432  and  _434
REMARK  183  A    between atoms: _434  and  _435
REMARK  184  A    between atoms: _437  and  _439
REMARK  185  A    between atoms: _439  and  _440
REMARK  186  A    between atoms: _442  and  _444
REMARK  187  A    between atoms: _444  and  _445
REMARK  188  A    between atoms: _444  and  _447
REMARK  189  A    between atoms: _447  and  _448
REMARK  190  A    between atoms: _451  and  _453
REMARK  191  A    between atoms: _453  and  _454
REMARK  192  A    between atoms: _456  and  _458
REMARK  193  A    between atoms: _458  and  _459
REMARK  194  A    between atoms: _461  and  _463
REMARK  195  A    between atoms: _463  and  _464
REMARK  196  A    between atoms: _463  and  _466
REMARK  197  A    between atoms: _466  and  _467
REMARK  198  A    between atoms: _473  and  _475
REMARK  199  A    between atoms: _475  and  _476
REMARK  200  A    between atoms: _475  and  _478
REMARK  201  A    between atoms: _478  and  _479
REMARK  202  A    between atoms: _482  and  _484
REMARK  203  A    between atoms: _484  and  _485
REMARK  204  A    between atoms: _484  and  _487
REMARK  205  A    between atoms: _490  and  _492
REMARK  206  A    between atoms: _492  and  _493
REMARK  207  A    between atoms: _492  and  _495
REMARK  208  A    between atoms: _495  and  _496
REMARK  209  A    between atoms: _499  and  _501
REMARK  210  A    between atoms: _501  and  _502
REMARK  211  A    between atoms: _501  and  _504
REMARK  212  A    between atoms: _504  and  _505
REMARK  213  A    between atoms: _509  and  _510
REMARK  214  A    between atoms: _515  and  _517
REMARK  215  A    between atoms: _517  and  _518
REMARK  216  A    between atoms: _517  and  _520
REMARK  217  A    between atoms: _523  and  _525
REMARK  218  A    between atoms: _525  and  _526
REMARK  219  A    between atoms: _525  and  _528
REMARK  220  A    between atoms: _528  and  _529
REMARK  221  A    between atoms: _534  and  _536
REMARK  222  A    between atoms: _536  and  _537
REMARK  223  A    between atoms: _536  and  _539
REMARK  224  A    between atoms: _539  and  _540
REMARK  225  A    between atoms: _543  and  _545
REMARK  226  A    between atoms: _545  and  _546
REMARK  227  A    between atoms: _545  and  _548
REMARK  228  A    between atoms: _548  and  _549
REMARK  229  A    between atoms: _552  and  _554
REMARK  230  A    between atoms: _554  and  _555
REMARK  231  A    between atoms: _557  and  _559
REMARK  232  A    between atoms: _559  and  _560
REMARK  233  A    between atoms: _559  and  _562
REMARK  234  A    between atoms: _562  and  _563
REMARK  235  A    between atoms: _563  and  _564
REMARK  236  A    between atoms: _564  and  _565
REMARK  237  A    between atoms: _574  and  _576
REMARK  238  A    between atoms: _576  and  _577
REMARK  239  A    between atoms: _576  and  _579
REMARK  240  A    between atoms: _579  and  _580
REMARK                            x       y       z     vdW  Elec       q    Type
REMARK                         _______ _______ _______ _____ _____    ______ ____
ROOT
ATOM      1  O   HOH     1      25.271  33.838  11.561  0.00  0.00    +0.000 OA
ENDROOT
TORSDOF 0
REMARK  Name = ../refined-set-2016/3kdc/3kdc_pocket.pdb
REMARK  240 active torsions:
REMARK  status: ('A' for Active; 'I' for Inactive)
REMARK    1  A    between atoms: _1  and  _3
REMARK    2  A    between atoms: _3  and  _4
REMARK    3  A    between atoms: _3  and  _6
REMARK    4  A    between atoms: _6  and  _7
REMARK    5  A    between atoms: _7  and  _8
REMARK    6  A    between atoms: _8  and  _9
REMARK    7  A    between atoms: _18  and  _20
REMARK    8  A    between atoms: _20  and  _21
REMARK    9  A    between atoms: _20  and  _23
REMARK   10  A    between atoms: _23  and  _24
REMARK   11  A    between atoms: _27  and  _29
REMARK   12  A    between atoms: _29  and  _30
REMARK   13  A    between atoms: _29  and  _32
REMARK   14  A    between atoms: _32  and  _33
REMARK   15  A    between atoms: _36  and  _38
REMARK   16  A    between atoms: _38  and  _39
REMARK   17  A    between atoms: _38  and  _41
REMARK   18  A    between atoms: _41  and  _42
REMARK   19  A    between atoms: _45  and  _47
REMARK   20  A    between atoms: _47  and  _48
REMARK   21  A    between atoms: _47  and  _50
REMARK   22  A    between atoms: _50  and  _51
REMARK   23  A    between atoms: _54  and  _56
REMARK   24  A    between atoms: _56  and  _57
REMARK   25  A    between atoms: _59  and  _61
REMARK   26  A    between atoms: _61  and  _62
REMARK   27  A    between atoms: _65  and  _67
REMARK   28  A    between atoms: _67  and  _68
REMARK   29  A    between atoms: _67  and  _70
REMARK   30  A    between atoms: _70  and  _71
REMARK   31  A    between atoms: _74  and  _76
REMARK   32  A    between atoms: _76  and  _77
REMARK   33  A    between atoms: _76  and  _79
REMARK   34  A    between atoms: _79  and  _80
REMARK   35  A    between atoms: _83  and  _85
REMARK   36  A    between atoms: _85  and  _86
REMARK   37  A    between atoms: _85  and  _88
REMARK   38  A    between atoms: _88  and  _89
REMARK   39  A    between atoms: _92  and  _94
REMARK   40  A    between atoms: _94  and  _95
REMARK   41  A    between atoms: _94  and  _97
REMARK   42  A    between atoms: _100  and  _102
REMARK   43  A    between atoms: _102  and  _103
REMARK   44  A    between atoms: _102  and  _105
REMARK   45  A    between atoms: _105  and  _106
REMARK   46  A    between atoms: _109  and  _111
REMARK   47  A    between atoms: _111  and  _112
REMARK   48  A    between atoms: _111  and  _114
REMARK   49  A    between atoms: _114  and  _115
REMARK   50  A    between atoms: _115  and  _116
REMARK   51  A    between atoms: _116  and  _117
REMARK   52  A    between atoms: _117  and  _118
REMARK   53  A    between atoms: _122  and  _124
REMARK   54  A    between atoms: _124  and  _125
REMARK   55  A    between atoms: _124  and  _127
REMARK   56  A    between atoms: _127  and  _128
REMARK   57  A    between atoms: _128  and  _129
REMARK   58  A    between atoms: _131  and  _133
REMARK   59  A    between atoms: _133  and  _134
REMARK   60  A    between atoms: _133  and  _136
REMARK   61  A    between atoms: _136  and  _137
REMARK   62  A    between atoms: _140  and  _142
REMARK   63  A    between atoms: _142  and  _143
REMARK   64  A    between atoms: _145  and  _147
REMARK   65  A    between atoms: _147  and  _148
REMARK   66  A    between atoms: _150  and  _152
REMARK   67  A    between atoms: _152  and  _153
REMARK   68  A    between atoms: _152  and  _155
REMARK   69  A    between atoms: _155  and  _156
REMARK   70  A    between atoms: _159  and  _161
REMARK   71  A    between atoms: _161  and  _162
REMARK   72  A    between atoms: _164  and  _166
REMARK   73  A    between atoms: _166  and  _167
REMARK   74  A    between atoms: _169  and  _171
REMARK   75  A    between atoms: _171  and  _172
REMARK   76  A    between atoms: _171  and  _174
REMARK   77  A    between atoms: _174  and  _175
REMARK   78  A    between atoms: _181  and  _183
REMARK   79  A    between atoms: _183  and  _184
REMARK   80  A    between atoms: _183  and  _186
REMARK   81  A    between atoms: _186  and  _187
REMARK   82  A    between atoms: _190  and  _192
REMARK   83  A    between atoms: _192  and  _193
REMARK   84  A    between atoms: _192  and  _195
REMARK   85  A    between atoms: _198  and  _200
REMARK   86  A    between atoms: _200  and  _201
REMARK   87  A    between atoms: _200  and  _203
REMARK   88  A    between atoms: _203  and  _204
REMARK   89  A    between atoms: _207  and  _209
REMARK   90  A    between atoms: _209  and  _210
REMARK   91  A    between atoms: _209  and  _212
REMARK   92  A    between atoms: _212  and  _213
REMARK   93  A    between atoms: _217  and  _218
REMARK   94  A    between atoms: _223  and  _225
REMARK   95  A    between atoms: _225  and  _226
REMARK   96  A    between atoms: _225  and  _228
REMARK   97  A    between atoms: _231  and  _233
REMARK   98  A    between atoms: _233  and  _234
REMARK   99  A    between atoms: _233  and  _236
REMARK  100  A    between atoms: _236  and  _237
REMARK  101  A    between atoms: _242  and  _244
REMARK  102  A    between atoms: _244  and  _245
REMARK  103  A    between atoms: _244  and  _247
REMARK  104  A    between atoms: _247  and  _248
REMARK  105  A    between atoms: _251  and  _253
REMARK  106  A    between atoms: _253  and  _254
REMARK  107  A    between atoms: _253  and  _256
REMARK  108  A    between atoms: _256  and  _257
REMARK  109  A    between atoms: _260  and  _262
REMARK  110  A    between atoms: _262  and  _263
REMARK  111  A    between atoms: _265  and  _267
REMARK  112  A    between atoms: _267  and  _268
REMARK  113  A    between atoms: _267  and  _270
REMARK  114  A    between atoms: _270  and  _271
REMARK  115  A    between atoms: _271  and  _272
REMARK  116  A    between atoms: _272  and  _273
REMARK  117  A    between atoms: _282  and  _284
REMARK  118  A    between atoms: _284  and  _285
REMARK  119  A    between atoms: _284  and  _287
REMARK  120  A    between atoms: _287  and  _288
REMARK  121  A    between atoms: _293  and  _295
REMARK  122  A    between atoms: _295  and  _296
REMARK  123  A    between atoms: _295  and  _298
REMARK  124  A    between atoms: _298  and  _299
REMARK  125  A    between atoms: _299  and  _300
REMARK  126  A    between atoms: _300  and  _301
REMARK  127  A    between atoms: _310  and  _312
REMARK  128  A    between atoms: _312  and  _313
REMARK  129  A    between atoms: _312  and  _315
REMARK  130  A    between atoms: _315  and  _316
REMARK  131  A    between atoms: _319  and  _321
REMARK  132  A    between atoms: _321  and  _322
REMARK  133  A    between atoms: _321  and  _324
REMARK  134  A    between atoms: _324  and  _325
REMARK  135  A    between atoms: _328  and  _330
REMARK  136  A    between atoms: _330  and  _331
REMARK  137  A    between atoms: _330  and  _333
REMARK  138  A    between atoms: _333  and  _334
REMARK  139  A    between atoms: _337  and  _339
REMARK  140  A    between atoms: _339  and  _340
REMARK  141  A    between atoms: _339  and  _342
REMARK  142  A    between atoms: _342  and  _343
REMARK  143  A    between atoms: _346  and  _348
REMARK  144  A    between atoms: _348  and  _349
REMARK  145  A    between atoms: _348  and  _351
REMARK  146  A    between atoms: _351  and  _352
REMARK  147  A    between atoms: _355  and  _357
REMARK  148  A    between atoms: _357  and  _358
REMARK  149  A    between atoms: _360  and  _362
REMARK  150  A    between atoms: _362  and  _363
REMARK  151  A    between atoms: _366  and  _368
REMARK  152  A    between atoms: _368  and  _369
REMARK  153  A    between atoms: _368  and  _371
REMARK  154  A    between atoms: _371  and  _372
REMARK  155  A    between atoms: _375  and  _377
REMARK  156  A    between atoms: _377  and  _378
REMARK  157  A    between atoms: _377  and  _380
REMARK  158  A    between atoms: _380  and  _381
REMARK  159  A    between atoms: _384  and  _386
REMARK  160  A    between atoms: _386  and  _387
REMARK  161  A    between atoms: _386  and  _389
REMARK  162  A    between atoms: _389  and  _390
REMARK  163  A    between atoms: _393  and  _395
REMARK  164  A    between atoms: _395  and  _396
REMARK  165  A    between atoms: _395  and  _398
REMARK  166  A    between atoms: _401  and  _403
REMARK  167  A    between atoms: _403  and  _404
REMARK  168  A    between atoms: _403  and  _406
REMARK  169  A    between atoms: _406  and  _407
REMARK  170  A    between atoms: _407  and  _408
REMARK  171  A    between atoms: _408  and  _409
REMARK  172  A    between atoms: _409  and  _410
REMARK  173  A    between atoms: _414  and  _416
REMARK  174  A    between atoms: _416  and  _417
REMARK  175  A    between atoms: _416  and  _419
REMARK  176  A    between atoms: _419  and  _420
REMARK  177  A    between atoms: _420  and  _421
REMARK  178  A    between atoms: _423  and  _425
REMARK  179  A    between atoms: _425  and  _426
REMARK  180  A    between atoms: _425  and  _428
REMARK  181  A    between atoms: _428  and  _429
REMARK  182  A    between atoms: _432  and  _434
REMARK  183  A    between atoms: _434  and  _435
REMARK  184  A    between atoms: _437  and  _439
REMARK  185  A    between atoms: _439  and  _440
REMARK  186  A    between atoms: _442  and  _444
REMARK  187  A    between atoms: _444  and  _445
REMARK  188  A    between atoms: _444  and  _447
REMARK  189  A    between atoms: _447  and  _448
REMARK  190  A    between atoms: _451  and  _453
REMARK  191  A    between atoms: _453  and  _454
REMARK  192  A    between atoms: _456  and  _458
REMARK  193  A    between atoms: _458  and  _459
REMARK  194  A    between atoms: _461  and  _463
REMARK  195  A    between atoms: _463  and  _464
REMARK  196  A    between atoms: _463  and  _466
REMARK  197  A    between atoms: _466  and  _467
REMARK  198  A    between atoms: _473  and  _475
REMARK  199  A    between atoms: _475  and  _476
REMARK  200  A    between atoms: _475  and  _478
REMARK  201  A    between atoms: _478  and  _479
REMARK  202  A    between atoms: _482  and  _484
REMARK  203  A    between atoms: _484  and  _485
REMARK  204  A    between atoms: _484  and  _487
REMARK  205  A    between atoms: _490  and  _492
REMARK  206  A    between atoms: _492  and  _493
REMARK  207  A    between atoms: _492  and  _495
REMARK  208  A    between atoms: _495  and  _496
REMARK  209  A    between atoms: _499  and  _501
REMARK  210  A    between atoms: _501  and  _502
REMARK  211  A    between atoms: _501  and  _504
REMARK  212  A    between atoms: _504  and  _505
REMARK  213  A    between atoms: _509  and  _510
REMARK  214  A    between atoms: _515  and  _517
REMARK  215  A    between atoms: _517  and  _518
REMARK  216  A    between atoms: _517  and  _520
REMARK  217  A    between atoms: _523  and  _525
REMARK  218  A    between atoms: _525  and  _526
REMARK  219  A    between atoms: _525  and  _528
REMARK  220  A    between atoms: _528  and  _529
REMARK  221  A    between atoms: _534  and  _536
REMARK  222  A    between atoms: _536  and  _537
REMARK  223  A    between atoms: _536  and  _539
REMARK  224  A    between atoms: _539  and  _540
REMARK  225  A    between atoms: _543  and  _545
REMARK  226  A    between atoms: _545  and  _546
REMARK  227  A    between atoms: _545  and  _548
REMARK  228  A    between atoms: _548  and  _549
REMARK  229  A    between atoms: _552  and  _554
REMARK  230  A    between atoms: _554  and  _555
REMARK  231  A    between atoms: _557  and  _559
REMARK  232  A    between atoms: _559  and  _560
REMARK  233  A    between atoms: _559  and  _562
REMARK  234  A    between atoms: _562  and  _563
REMARK  235  A    between atoms: _563  and  _564
REMARK  236  A    between atoms: _564  and  _565
REMARK  237  A    between atoms: _574  and  _576
REMARK  238  A    between atoms: _576  and  _577
REMARK  239  A    between atoms: _576  and  _579
REMARK  240  A    between atoms: _579  and  _580
REMARK                            x       y       z     vdW  Elec       q    Type
REMARK                         _______ _______ _______ _____ _____    ______ ____
ROOT
ATOM      1  O   HOH     1      29.477  28.391  13.970  0.00  0.00    +0.000 OA
ENDROOT
TORSDOF 0
REMARK  Name = ../refined-set-2016/3kdc/3kdc_pocket.pdb
REMARK  240 active torsions:
REMARK  status: ('A' for Active; 'I' for Inactive)
REMARK    1  A    between atoms: _1  and  _3
REMARK    2  A    between atoms: _3  and  _4
REMARK    3  A    between atoms: _3  and  _6
REMARK    4  A    between atoms: _6  and  _7
REMARK    5  A    between atoms: _7  and  _8
REMARK    6  A    between atoms: _8  and  _9
REMARK    7  A    between atoms: _18  and  _20
REMARK    8  A    between atoms: _20  and  _21
REMARK    9  A    between atoms: _20  and  _23
REMARK   10  A    between atoms: _23  and  _24
REMARK   11  A    between atoms: _27  and  _29
REMARK   12  A    between atoms: _29  and  _30
REMARK   13  A    between atoms: _29  and  _32
REMARK   14  A    between atoms: _32  and  _33
REMARK   15  A    between atoms: _36  and  _38
REMARK   16  A    between atoms: _38  and  _39
REMARK   17  A    between atoms: _38  and  _41
REMARK   18  A    between atoms: _41  and  _42
REMARK   19  A    between atoms: _45  and  _47
REMARK   20  A    between atoms: _47  and  _48
REMARK   21  A    between atoms: _47  and  _50
REMARK   22  A    between atoms: _50  and  _51
REMARK   23  A    between atoms: _54  and  _56
REMARK   24  A    between atoms: _56  and  _57
REMARK   25  A    between atoms: _59  and  _61
REMARK   26  A    between atoms: _61  and  _62
REMARK   27  A    between atoms: _65  and  _67
REMARK   28  A    between atoms: _67  and  _68
REMARK   29  A    between atoms: _67  and  _70
REMARK   30  A    between atoms: _70  and  _71
REMARK   31  A    between atoms: _74  and  _76
REMARK   32  A    between atoms: _76  and  _77
REMARK   33  A    between atoms: _76  and  _79
REMARK   34  A    between atoms: _79  and  _80
REMARK   35  A    between atoms: _83  and  _85
REMARK   36  A    between atoms: _85  and  _86
REMARK   37  A    between atoms: _85  and  _88
REMARK   38  A    between atoms: _88  and  _89
REMARK   39  A    between atoms: _92  and  _94
REMARK   40  A    between atoms: _94  and  _95
REMARK   41  A    between atoms: _94  and  _97
REMARK   42  A    between atoms: _100  and  _102
REMARK   43  A    between atoms: _102  and  _103
REMARK   44  A    between atoms: _102  and  _105
REMARK   45  A    between atoms: _105  and  _106
REMARK   46  A    between atoms: _109  and  _111
REMARK   47  A    between atoms: _111  and  _112
REMARK   48  A    between atoms: _111  and  _114
REMARK   49  A    between atoms: _114  and  _115
REMARK   50  A    between atoms: _115  and  _116
REMARK   51  A    between atoms: _116  and  _117
REMARK   52  A    between atoms: _117  and  _118
REMARK   53  A    between atoms: _122  and  _124
REMARK   54  A    between atoms: _124  and  _125
REMARK   55  A    between atoms: _124  and  _127
REMARK   56  A    between atoms: _127  and  _128
REMARK   57  A    between atoms: _128  and  _129
REMARK   58  A    between atoms: _131  and  _133
REMARK   59  A    between atoms: _133  and  _134
REMARK   60  A    between atoms: _133  and  _136
REMARK   61  A    between atoms: _136  and  _137
REMARK   62  A    between atoms: _140  and  _142
REMARK   63  A    between atoms: _142  and  _143
REMARK   64  A    between atoms: _145  and  _147
REMARK   65  A    between atoms: _147  and  _148
REMARK   66  A    between atoms: _150  and  _152
REMARK   67  A    between atoms: _152  and  _153
REMARK   68  A    between atoms: _152  and  _155
REMARK   69  A    between atoms: _155  and  _156
REMARK   70  A    between atoms: _159  and  _161
REMARK   71  A    between atoms: _161  and  _162
REMARK   72  A    between atoms: _164  and  _166
REMARK   73  A    between atoms: _166  and  _167
REMARK   74  A    between atoms: _169  and  _171
REMARK   75  A    between atoms: _171  and  _172
REMARK   76  A    between atoms: _171  and  _174
REMARK   77  A    between atoms: _174  and  _175
REMARK   78  A    between atoms: _181  and  _183
REMARK   79  A    between atoms: _183  and  _184
REMARK   80  A    between atoms: _183  and  _186
REMARK   81  A    between atoms: _186  and  _187
REMARK   82  A    between atoms: _190  and  _192
REMARK   83  A    between atoms: _192  and  _193
REMARK   84  A    between atoms: _192  and  _195
REMARK   85  A    between atoms: _198  and  _200
REMARK   86  A    between atoms: _200  and  _201
REMARK   87  A    between atoms: _200  and  _203
REMARK   88  A    between atoms: _203  and  _204
REMARK   89  A    between atoms: _207  and  _209
REMARK   90  A    between atoms: _209  and  _210
REMARK   91  A    between atoms: _209  and  _212
REMARK   92  A    between atoms: _212  and  _213
REMARK   93  A    between atoms: _217  and  _218
REMARK   94  A    between atoms: _223  and  _225
REMARK   95  A    between atoms: _225  and  _226
REMARK   96  A    between atoms: _225  and  _228
REMARK   97  A    between atoms: _231  and  _233
REMARK   98  A    between atoms: _233  and  _234
REMARK   99  A    between atoms: _233  and  _236
REMARK  100  A    between atoms: _236  and  _237
REMARK  101  A    between atoms: _242  and  _244
REMARK  102  A    between atoms: _244  and  _245
REMARK  103  A    between atoms: _244  and  _247
REMARK  104  A    between atoms: _247  and  _248
REMARK  105  A    between atoms: _251  and  _253
REMARK  106  A    between atoms: _253  and  _254
REMARK  107  A    between atoms: _253  and  _256
REMARK  108  A    between atoms: _256  and  _257
REMARK  109  A    between atoms: _260  and  _262
REMARK  110  A    between atoms: _262  and  _263
REMARK  111  A    between atoms: _265  and  _267
REMARK  112  A    between atoms: _267  and  _268
REMARK  113  A    between atoms: _267  and  _270
REMARK  114  A    between atoms: _270  and  _271
REMARK  115  A    between atoms: _271  and  _272
REMARK  116  A    between atoms: _272  and  _273
REMARK  117  A    between atoms: _282  and  _284
REMARK  118  A    between atoms: _284  and  _285
REMARK  119  A    between atoms: _284  and  _287
REMARK  120  A    between atoms: _287  and  _288
REMARK  121  A    between atoms: _293  and  _295
REMARK  122  A    between atoms: _295  and  _296
REMARK  123  A    between atoms: _295  and  _298
REMARK  124  A    between atoms: _298  and  _299
REMARK  125  A    between atoms: _299  and  _300
REMARK  126  A    between atoms: _300  and  _301
REMARK  127  A    between atoms: _310  and  _312
REMARK  128  A    between atoms: _312  and  _313
REMARK  129  A    between atoms: _312  and  _315
REMARK  130  A    between atoms: _315  and  _316
REMARK  131  A    between atoms: _319  and  _321
REMARK  132  A    between atoms: _321  and  _322
REMARK  133  A    between atoms: _321  and  _324
REMARK  134  A    between atoms: _324  and  _325
REMARK  135  A    between atoms: _328  and  _330
REMARK  136  A    between atoms: _330  and  _331
REMARK  137  A    between atoms: _330  and  _333
REMARK  138  A    between atoms: _333  and  _334
REMARK  139  A    between atoms: _337  and  _339
REMARK  140  A    between atoms: _339  and  _340
REMARK  141  A    between atoms: _339  and  _342
REMARK  142  A    between atoms: _342  and  _343
REMARK  143  A    between atoms: _346  and  _348
REMARK  144  A    between atoms: _348  and  _349
REMARK  145  A    between atoms: _348  and  _351
REMARK  146  A    between atoms: _351  and  _352
REMARK  147  A    between atoms: _355  and  _357
REMARK  148  A    between atoms: _357  and  _358
REMARK  149  A    between atoms: _360  and  _362
REMARK  150  A    between atoms: _362  and  _363
REMARK  151  A    between atoms: _366  and  _368
REMARK  152  A    between atoms: _368  and  _369
REMARK  153  A    between atoms: _368  and  _371
REMARK  154  A    between atoms: _371  and  _372
REMARK  155  A    between atoms: _375  and  _377
REMARK  156  A    between atoms: _377  and  _378
REMARK  157  A    between atoms: _377  and  _380
REMARK  158  A    between atoms: _380  and  _381
REMARK  159  A    between atoms: _384  and  _386
REMARK  160  A    between atoms: _386  and  _387
REMARK  161  A    between atoms: _386  and  _389
REMARK  162  A    between atoms: _389  and  _390
REMARK  163  A    between atoms: _393  and  _395
REMARK  164  A    between atoms: _395  and  _396
REMARK  165  A    between atoms: _395  and  _398
REMARK  166  A    between atoms: _401  and  _403
REMARK  167  A    between atoms: _403  and  _404
REMARK  168  A    between atoms: _403  and  _406
REMARK  169  A    between atoms: _406  and  _407
REMARK  170  A    between atoms: _407  and  _408
REMARK  171  A    between atoms: _408  and  _409
REMARK  172  A    between atoms: _409  and  _410
REMARK  173  A    between atoms: _414  and  _416
REMARK  174  A    between atoms: _416  and  _417
REMARK  175  A    between atoms: _416  and  _419
REMARK  176  A    between atoms: _419  and  _420
REMARK  177  A    between atoms: _420  and  _421
REMARK  178  A    between atoms: _423  and  _425
REMARK  179  A    between atoms: _425  and  _426
REMARK  180  A    between atoms: _425  and  _428
REMARK  181  A    between atoms: _428  and  _429
REMARK  182  A    between atoms: _432  and  _434
REMARK  183  A    between atoms: _434  and  _435
REMARK  184  A    between atoms: _437  and  _439
REMARK  185  A    between atoms: _439  and  _440
REMARK  186  A    between atoms: _442  and  _444
REMARK  187  A    between atoms: _444  and  _445
REMARK  188  A    between atoms: _444  and  _447
REMARK  189  A    between atoms: _447  and  _448
REMARK  190  A    between atoms: _451  and  _453
REMARK  191  A    between atoms: _453  and  _454
REMARK  192  A    between atoms: _456  and  _458
REMARK  193  A    between atoms: _458  and  _459
REMARK  194  A    between atoms: _461  and  _463
REMARK  195  A    between atoms: _463  and  _464
REMARK  196  A    between atoms: _463  and  _466
REMARK  197  A    between atoms: _466  and  _467
REMARK  198  A    between atoms: _473  and  _475
REMARK  199  A    between atoms: _475  and  _476
REMARK  200  A    between atoms: _475  and  _478
REMARK  201  A    between atoms: _478  and  _479
REMARK  202  A    between atoms: _482  and  _484
REMARK  203  A    between atoms: _484  and  _485
REMARK  204  A    between atoms: _484  and  _487
REMARK  205  A    between atoms: _490  and  _492
REMARK  206  A    between atoms: _492  and  _493
REMARK  207  A    between atoms: _492  and  _495
REMARK  208  A    between atoms: _495  and  _496
REMARK  209  A    between atoms: _499  and  _501
REMARK  210  A    between atoms: _501  and  _502
REMARK  211  A    between atoms: _501  and  _504
REMARK  212  A    between atoms: _504  and  _505
REMARK  213  A    between atoms: _509  and  _510
REMARK  214  A    between atoms: _515  and  _517
REMARK  215  A    between atoms: _517  and  _518
REMARK  216  A    between atoms: _517  and  _520
REMARK  217  A    between atoms: _523  and  _525
REMARK  218  A    between atoms: _525  and  _526
REMARK  219  A    between atoms: _525  and  _528
REMARK  220  A    between atoms: _528  and  _529
REMARK  221  A    between atoms: _534  and  _536
REMARK  222  A    between atoms: _536  and  _537
REMARK  223  A    between atoms: _536  and  _539
REMARK  224  A    between atoms: _539  and  _540
REMARK  225  A    between atoms: _543  and  _545
REMARK  226  A    between atoms: _545  and  _546
REMARK  227  A    between atoms: _545  and  _548
REMARK  228  A    between atoms: _548  and  _549
REMARK  229  A    between atoms: _552  and  _554
REMARK  230  A    between atoms: _554  and  _555
REMARK  231  A    between atoms: _557  and  _559
REMARK  232  A    between atoms: _559  and  _560
REMARK  233  A    between atoms: _559  and  _562
REMARK  234  A    between atoms: _562  and  _563
REMARK  235  A    between atoms: _563  and  _564
REMARK  236  A    between atoms: _564  and  _565
REMARK  237  A    between atoms: _574  and  _576
REMARK  238  A    between atoms: _576  and  _577
REMARK  239  A    between atoms: _576  and  _579
REMARK  240  A    between atoms: _579  and  _580
REMARK                            x       y       z     vdW  Elec       q    Type
REMARK                         _______ _______ _______ _____ _____    ______ ____
ROOT
ATOM      1  O   HOH     1      25.868  22.808  19.600  0.00  0.00    +0.000 OA
ENDROOT
TORSDOF 0
REMARK  Name = ../refined-set-2016/3kdc/3kdc_pocket.pdb
REMARK  240 active torsions:
REMARK  status: ('A' for Active; 'I' for Inactive)
REMARK    1  A    between atoms: _1  and  _3
REMARK    2  A    between atoms: _3  and  _4
REMARK    3  A    between atoms: _3  and  _6
REMARK    4  A    between atoms: _6  and  _7
REMARK    5  A    between atoms: _7  and  _8
REMARK    6  A    between atoms: _8  and  _9
REMARK    7  A    between atoms: _18  and  _20
REMARK    8  A    between atoms: _20  and  _21
REMARK    9  A    between atoms: _20  and  _23
REMARK   10  A    between atoms: _23  and  _24
REMARK   11  A    between atoms: _27  and  _29
REMARK   12  A    between atoms: _29  and  _30
REMARK   13  A    between atoms: _29  and  _32
REMARK   14  A    between atoms: _32  and  _33
REMARK   15  A    between atoms: _36  and  _38
REMARK   16  A    between atoms: _38  and  _39
REMARK   17  A    between atoms: _38  and  _41
REMARK   18  A    between atoms: _41  and  _42
REMARK   19  A    between atoms: _45  and  _47
REMARK   20  A    between atoms: _47  and  _48
REMARK   21  A    between atoms: _47  and  _50
REMARK   22  A    between atoms: _50  and  _51
REMARK   23  A    between atoms: _54  and  _56
REMARK   24  A    between atoms: _56  and  _57
REMARK   25  A    between atoms: _59  and  _61
REMARK   26  A    between atoms: _61  and  _62
REMARK   27  A    between atoms: _65  and  _67
REMARK   28  A    between atoms: _67  and  _68
REMARK   29  A    between atoms: _67  and  _70
REMARK   30  A    between atoms: _70  and  _71
REMARK   31  A    between atoms: _74  and  _76
REMARK   32  A    between atoms: _76  and  _77
REMARK   33  A    between atoms: _76  and  _79
REMARK   34  A    between atoms: _79  and  _80
REMARK   35  A    between atoms: _83  and  _85
REMARK   36  A    between atoms: _85  and  _86
REMARK   37  A    between atoms: _85  and  _88
REMARK   38  A    between atoms: _88  and  _89
REMARK   39  A    between atoms: _92  and  _94
REMARK   40  A    between atoms: _94  and  _95
REMARK   41  A    between atoms: _94  and  _97
REMARK   42  A    between atoms: _100  and  _102
REMARK   43  A    between atoms: _102  and  _103
REMARK   44  A    between atoms: _102  and  _105
REMARK   45  A    between atoms: _105  and  _106
REMARK   46  A    between atoms: _109  and  _111
REMARK   47  A    between atoms: _111  and  _112
REMARK   48  A    between atoms: _111  and  _114
REMARK   49  A    between atoms: _114  and  _115
REMARK   50  A    between atoms: _115  and  _116
REMARK   51  A    between atoms: _116  and  _117
REMARK   52  A    between atoms: _117  and  _118
REMARK   53  A    between atoms: _122  and  _124
REMARK   54  A    between atoms: _124  and  _125
REMARK   55  A    between atoms: _124  and  _127
REMARK   56  A    between atoms: _127  and  _128
REMARK   57  A    between atoms: _128  and  _129
REMARK   58  A    between atoms: _131  and  _133
REMARK   59  A    between atoms: _133  and  _134
REMARK   60  A    between atoms: _133  and  _136
REMARK   61  A    between atoms: _136  and  _137
REMARK   62  A    between atoms: _140  and  _142
REMARK   63  A    between atoms: _142  and  _143
REMARK   64  A    between atoms: _145  and  _147
REMARK   65  A    between atoms: _147  and  _148
REMARK   66  A    between atoms: _150  and  _152
REMARK   67  A    between atoms: _152  and  _153
REMARK   68  A    between atoms: _152  and  _155
REMARK   69  A    between atoms: _155  and  _156
REMARK   70  A    between atoms: _159  and  _161
REMARK   71  A    between atoms: _161  and  _162
REMARK   72  A    between atoms: _164  and  _166
REMARK   73  A    between atoms: _166  and  _167
REMARK   74  A    between atoms: _169  and  _171
REMARK   75  A    between atoms: _171  and  _172
REMARK   76  A    between atoms: _171  and  _174
REMARK   77  A    between atoms: _174  and  _175
REMARK   78  A    between atoms: _181  and  _183
REMARK   79  A    between atoms: _183  and  _184
REMARK   80  A    between atoms: _183  and  _186
REMARK   81  A    between atoms: _186  and  _187
REMARK   82  A    between atoms: _190  and  _192
REMARK   83  A    between atoms: _192  and  _193
REMARK   84  A    between atoms: _192  and  _195
REMARK   85  A    between atoms: _198  and  _200
REMARK   86  A    between atoms: _200  and  _201
REMARK   87  A    between atoms: _200  and  _203
REMARK   88  A    between atoms: _203  and  _204
REMARK   89  A    between atoms: _207  and  _209
REMARK   90  A    between atoms: _209  and  _210
REMARK   91  A    between atoms: _209  and  _212
REMARK   92  A    between atoms: _212  and  _213
REMARK   93  A    between atoms: _217  and  _218
REMARK   94  A    between atoms: _223  and  _225
REMARK   95  A    between atoms: _225  and  _226
REMARK   96  A    between atoms: _225  and  _228
REMARK   97  A    between atoms: _231  and  _233
REMARK   98  A    between atoms: _233  and  _234
REMARK   99  A    between atoms: _233  and  _236
REMARK  100  A    between atoms: _236  and  _237
REMARK  101  A    between atoms: _242  and  _244
REMARK  102  A    between atoms: _244  and  _245
REMARK  103  A    between atoms: _244  and  _247
REMARK  104  A    between atoms: _247  and  _248
REMARK  105  A    between atoms: _251  and  _253
REMARK  106  A    between atoms: _253  and  _254
REMARK  107  A    between atoms: _253  and  _256
REMARK  108  A    between atoms: _256  and  _257
REMARK  109  A    between atoms: _260  and  _262
REMARK  110  A    between atoms: _262  and  _263
REMARK  111  A    between atoms: _265  and  _267
REMARK  112  A    between atoms: _267  and  _268
REMARK  113  A    between atoms: _267  and  _270
REMARK  114  A    between atoms: _270  and  _271
REMARK  115  A    between atoms: _271  and  _272
REMARK  116  A    between atoms: _272  and  _273
REMARK  117  A    between atoms: _282  and  _284
REMARK  118  A    between atoms: _284  and  _285
REMARK  119  A    between atoms: _284  and  _287
REMARK  120  A    between atoms: _287  and  _288
REMARK  121  A    between atoms: _293  and  _295
REMARK  122  A    between atoms: _295  and  _296
REMARK  123  A    between atoms: _295  and  _298
REMARK  124  A    between atoms: _298  and  _299
REMARK  125  A    between atoms: _299  and  _300
REMARK  126  A    between atoms: _300  and  _301
REMARK  127  A    between atoms: _310  and  _312
REMARK  128  A    between atoms: _312  and  _313
REMARK  129  A    between atoms: _312  and  _315
REMARK  130  A    between atoms: _315  and  _316
REMARK  131  A    between atoms: _319  and  _321
REMARK  132  A    between atoms: _321  and  _322
REMARK  133  A    between atoms: _321  and  _324
REMARK  134  A    between atoms: _324  and  _325
REMARK  135  A    between atoms: _328  and  _330
REMARK  136  A    between atoms: _330  and  _331
REMARK  137  A    between atoms: _330  and  _333
REMARK  138  A    between atoms: _333  and  _334
REMARK  139  A    between atoms: _337  and  _339
REMARK  140  A    between atoms: _339  and  _340
REMARK  141  A    between atoms: _339  and  _342
REMARK  142  A    between atoms: _342  and  _343
REMARK  143  A    between atoms: _346  and  _348
REMARK  144  A    between atoms: _348  and  _349
REMARK  145  A    between atoms: _348  and  _351
REMARK  146  A    between atoms: _351  and  _352
REMARK  147  A    between atoms: _355  and  _357
REMARK  148  A    between atoms: _357  and  _358
REMARK  149  A    between atoms: _360  and  _362
REMARK  150  A    between atoms: _362  and  _363
REMARK  151  A    between atoms: _366  and  _368
REMARK  152  A    between atoms: _368  and  _369
REMARK  153  A    between atoms: _368  and  _371
REMARK  154  A    between atoms: _371  and  _372
REMARK  155  A    between atoms: _375  and  _377
REMARK  156  A    between atoms: _377  and  _378
REMARK  157  A    between atoms: _377  and  _380
REMARK  158  A    between atoms: _380  and  _381
REMARK  159  A    between atoms: _384  and  _386
REMARK  160  A    between atoms: _386  and  _387
REMARK  161  A    between atoms: _386  and  _389
REMARK  162  A    between atoms: _389  and  _390
REMARK  163  A    between atoms: _393  and  _395
REMARK  164  A    between atoms: _395  and  _396
REMARK  165  A    between atoms: _395  and  _398
REMARK  166  A    between atoms: _401  and  _403
REMARK  167  A    between atoms: _403  and  _404
REMARK  168  A    between atoms: _403  and  _406
REMARK  169  A    between atoms: _406  and  _407
REMARK  170  A    between atoms: _407  and  _408
REMARK  171  A    between atoms: _408  and  _409
REMARK  172  A    between atoms: _409  and  _410
REMARK  173  A    between atoms: _414  and  _416
REMARK  174  A    between atoms: _416  and  _417
REMARK  175  A    between atoms: _416  and  _419
REMARK  176  A    between atoms: _419  and  _420
REMARK  177  A    between atoms: _420  and  _421
REMARK  178  A    between atoms: _423  and  _425
REMARK  179  A    between atoms: _425  and  _426
REMARK  180  A    between atoms: _425  and  _428
REMARK  181  A    between atoms: _428  and  _429
REMARK  182  A    between atoms: _432  and  _434
REMARK  183  A    between atoms: _434  and  _435
REMARK  184  A    between atoms: _437  and  _439
REMARK  185  A    between atoms: _439  and  _440
REMARK  186  A    between atoms: _442  and  _444
REMARK  187  A    between atoms: _444  and  _445
REMARK  188  A    between atoms: _444  and  _447
REMARK  189  A    between atoms: _447  and  _448
REMARK  190  A    between atoms: _451  and  _453
REMARK  191  A    between atoms: _453  and  _454
REMARK  192  A    between atoms: _456  and  _458
REMARK  193  A    between atoms: _458  and  _459
REMARK  194  A    between atoms: _461  and  _463
REMARK  195  A    between atoms: _463  and  _464
REMARK  196  A    between atoms: _463  and  _466
REMARK  197  A    between atoms: _466  and  _467
REMARK  198  A    between atoms: _473  and  _475
REMARK  199  A    between atoms: _475  and  _476
REMARK  200  A    between atoms: _475  and  _478
REMARK  201  A    between atoms: _478  and  _479
REMARK  202  A    between atoms: _482  and  _484
REMARK  203  A    between atoms: _484  and  _485
REMARK  204  A    between atoms: _484  and  _487
REMARK  205  A    between atoms: _490  and  _492
REMARK  206  A    between atoms: _492  and  _493
REMARK  207  A    between atoms: _492  and  _495
REMARK  208  A    between atoms: _495  and  _496
REMARK  209  A    between atoms: _499  and  _501
REMARK  210  A    between atoms: _501  and  _502
REMARK  211  A    between atoms: _501  and  _504
REMARK  212  A    between atoms: _504  and  _505
REMARK  213  A    between atoms: _509  and  _510
REMARK  214  A    between atoms: _515  and  _517
REMARK  215  A    between atoms: _517  and  _518
REMARK  216  A    between atoms: _517  and  _520
REMARK  217  A    between atoms: _523  and  _525
REMARK  218  A    between atoms: _525  and  _526
REMARK  219  A    between atoms: _525  and  _528
REMARK  220  A    between atoms: _528  and  _529
REMARK  221  A    between atoms: _534  and  _536
REMARK  222  A    between atoms: _536  and  _537
REMARK  223  A    between atoms: _536  and  _539
REMARK  224  A    between atoms: _539  and  _540
REMARK  225  A    between atoms: _543  and  _545
REMARK  226  A    between atoms: _545  and  _546
REMARK  227  A    between atoms: _545  and  _548
REMARK  228  A    between atoms: _548  and  _549
REMARK  229  A    between atoms: _552  and  _554
REMARK  230  A    between atoms: _554  and  _555
REMARK  231  A    between atoms: _557  and  _559
REMARK  232  A    between atoms: _559  and  _560
REMARK  233  A    between atoms: _559  and  _562
REMARK  234  A    between atoms: _562  and  _563
REMARK  235  A    between atoms: _563  and  _564
REMARK  236  A    between atoms: _564  and  _565
REMARK  237  A    between atoms: _574  and  _576
REMARK  238  A    between atoms: _576  and  _577
REMARK  239  A    between atoms: _576  and  _579
REMARK  240  A    between atoms: _579  and  _580
REMARK                            x       y       z     vdW  Elec       q    Type
REMARK                         _______ _______ _______ _____ _____    ______ ____
ROOT
ATOM      1  O   HOH     1      24.317  25.717  21.527  0.00  0.00    +0.000 OA
ENDROOT
TORSDOF 0
REMARK  Name = ../refined-set-2016/3kdc/3kdc_pocket.pdb
REMARK  240 active torsions:
REMARK  status: ('A' for Active; 'I' for Inactive)
REMARK    1  A    between atoms: _1  and  _3
REMARK    2  A    between atoms: _3  and  _4
REMARK    3  A    between atoms: _3  and  _6
REMARK    4  A    between atoms: _6  and  _7
REMARK    5  A    between atoms: _7  and  _8
REMARK    6  A    between atoms: _8  and  _9
REMARK    7  A    between atoms: _18  and  _20
REMARK    8  A    between atoms: _20  and  _21
REMARK    9  A    between atoms: _20  and  _23
REMARK   10  A    between atoms: _23  and  _24
REMARK   11  A    between atoms: _27  and  _29
REMARK   12  A    between atoms: _29  and  _30
REMARK   13  A    between atoms: _29  and  _32
REMARK   14  A    between atoms: _32  and  _33
REMARK   15  A    between atoms: _36  and  _38
REMARK   16  A    between atoms: _38  and  _39
REMARK   17  A    between atoms: _38  and  _41
REMARK   18  A    between atoms: _41  and  _42
REMARK   19  A    between atoms: _45  and  _47
REMARK   20  A    between atoms: _47  and  _48
REMARK   21  A    between atoms: _47  and  _50
REMARK   22  A    between atoms: _50  and  _51
REMARK   23  A    between atoms: _54  and  _56
REMARK   24  A    between atoms: _56  and  _57
REMARK   25  A    between atoms: _59  and  _61
REMARK   26  A    between atoms: _61  and  _62
REMARK   27  A    between atoms: _65  and  _67
REMARK   28  A    between atoms: _67  and  _68
REMARK   29  A    between atoms: _67  and  _70
REMARK   30  A    between atoms: _70  and  _71
REMARK   31  A    between atoms: _74  and  _76
REMARK   32  A    between atoms: _76  and  _77
REMARK   33  A    between atoms: _76  and  _79
REMARK   34  A    between atoms: _79  and  _80
REMARK   35  A    between atoms: _83  and  _85
REMARK   36  A    between atoms: _85  and  _86
REMARK   37  A    between atoms: _85  and  _88
REMARK   38  A    between atoms: _88  and  _89
REMARK   39  A    between atoms: _92  and  _94
REMARK   40  A    between atoms: _94  and  _95
REMARK   41  A    between atoms: _94  and  _97
REMARK   42  A    between atoms: _100  and  _102
REMARK   43  A    between atoms: _102  and  _103
REMARK   44  A    between atoms: _102  and  _105
REMARK   45  A    between atoms: _105  and  _106
REMARK   46  A    between atoms: _109  and  _111
REMARK   47  A    between atoms: _111  and  _112
REMARK   48  A    between atoms: _111  and  _114
REMARK   49  A    between atoms: _114  and  _115
REMARK   50  A    between atoms: _115  and  _116
REMARK   51  A    between atoms: _116  and  _117
REMARK   52  A    between atoms: _117  and  _118
REMARK   53  A    between atoms: _122  and  _124
REMARK   54  A    between atoms: _124  and  _125
REMARK   55  A    between atoms: _124  and  _127
REMARK   56  A    between atoms: _127  and  _128
REMARK   57  A    between atoms: _128  and  _129
REMARK   58  A    between atoms: _131  and  _133
REMARK   59  A    between atoms: _133  and  _134
REMARK   60  A    between atoms: _133  and  _136
REMARK   61  A    between atoms: _136  and  _137
REMARK   62  A    between atoms: _140  and  _142
REMARK   63  A    between atoms: _142  and  _143
REMARK   64  A    between atoms: _145  and  _147
REMARK   65  A    between atoms: _147  and  _148
REMARK   66  A    between atoms: _150  and  _152
REMARK   67  A    between atoms: _152  and  _153
REMARK   68  A    between atoms: _152  and  _155
REMARK   69  A    between atoms: _155  and  _156
REMARK   70  A    between atoms: _159  and  _161
REMARK   71  A    between atoms: _161  and  _162
REMARK   72  A    between atoms: _164  and  _166
REMARK   73  A    between atoms: _166  and  _167
REMARK   74  A    between atoms: _169  and  _171
REMARK   75  A    between atoms: _171  and  _172
REMARK   76  A    between atoms: _171  and  _174
REMARK   77  A    between atoms: _174  and  _175
REMARK   78  A    between atoms: _181  and  _183
REMARK   79  A    between atoms: _183  and  _184
REMARK   80  A    between atoms: _183  and  _186
REMARK   81  A    between atoms: _186  and  _187
REMARK   82  A    between atoms: _190  and  _192
REMARK   83  A    between atoms: _192  and  _193
REMARK   84  A    between atoms: _192  and  _195
REMARK   85  A    between atoms: _198  and  _200
REMARK   86  A    between atoms: _200  and  _201
REMARK   87  A    between atoms: _200  and  _203
REMARK   88  A    between atoms: _203  and  _204
REMARK   89  A    between atoms: _207  and  _209
REMARK   90  A    between atoms: _209  and  _210
REMARK   91  A    between atoms: _209  and  _212
REMARK   92  A    between atoms: _212  and  _213
REMARK   93  A    between atoms: _217  and  _218
REMARK   94  A    between atoms: _223  and  _225
REMARK   95  A    between atoms: _225  and  _226
REMARK   96  A    between atoms: _225  and  _228
REMARK   97  A    between atoms: _231  and  _233
REMARK   98  A    between atoms: _233  and  _234
REMARK   99  A    between atoms: _233  and  _236
REMARK  100  A    between atoms: _236  and  _237
REMARK  101  A    between atoms: _242  and  _244
REMARK  102  A    between atoms: _244  and  _245
REMARK  103  A    between atoms: _244  and  _247
REMARK  104  A    between atoms: _247  and  _248
REMARK  105  A    between atoms: _251  and  _253
REMARK  106  A    between atoms: _253  and  _254
REMARK  107  A    between atoms: _253  and  _256
REMARK  108  A    between atoms: _256  and  _257
REMARK  109  A    between atoms: _260  and  _262
REMARK  110  A    between atoms: _262  and  _263
REMARK  111  A    between atoms: _265  and  _267
REMARK  112  A    between atoms: _267  and  _268
REMARK  113  A    between atoms: _267  and  _270
REMARK  114  A    between atoms: _270  and  _271
REMARK  115  A    between atoms: _271  and  _272
REMARK  116  A    between atoms: _272  and  _273
REMARK  117  A    between atoms: _282  and  _284
REMARK  118  A    between atoms: _284  and  _285
REMARK  119  A    between atoms: _284  and  _287
REMARK  120  A    between atoms: _287  and  _288
REMARK  121  A    between atoms: _293  and  _295
REMARK  122  A    between atoms: _295  and  _296
REMARK  123  A    between atoms: _295  and  _298
REMARK  124  A    between atoms: _298  and  _299
REMARK  125  A    between atoms: _299  and  _300
REMARK  126  A    between atoms: _300  and  _301
REMARK  127  A    between atoms: _310  and  _312
REMARK  128  A    between atoms: _312  and  _313
REMARK  129  A    between atoms: _312  and  _315
REMARK  130  A    between atoms: _315  and  _316
REMARK  131  A    between atoms: _319  and  _321
REMARK  132  A    between atoms: _321  and  _322
REMARK  133  A    between atoms: _321  and  _324
REMARK  134  A    between atoms: _324  and  _325
REMARK  135  A    between atoms: _328  and  _330
REMARK  136  A    between atoms: _330  and  _331
REMARK  137  A    between atoms: _330  and  _333
REMARK  138  A    between atoms: _333  and  _334
REMARK  139  A    between atoms: _337  and  _339
REMARK  140  A    between atoms: _339  and  _340
REMARK  141  A    between atoms: _339  and  _342
REMARK  142  A    between atoms: _342  and  _343
REMARK  143  A    between atoms: _346  and  _348
REMARK  144  A    between atoms: _348  and  _349
REMARK  145  A    between atoms: _348  and  _351
REMARK  146  A    between atoms: _351  and  _352
REMARK  147  A    between atoms: _355  and  _357
REMARK  148  A    between atoms: _357  and  _358
REMARK  149  A    between atoms: _360  and  _362
REMARK  150  A    between atoms: _362  and  _363
REMARK  151  A    between atoms: _366  and  _368
REMARK  152  A    between atoms: _368  and  _369
REMARK  153  A    between atoms: _368  and  _371
REMARK  154  A    between atoms: _371  and  _372
REMARK  155  A    between atoms: _375  and  _377
REMARK  156  A    between atoms: _377  and  _378
REMARK  157  A    between atoms: _377  and  _380
REMARK  158  A    between atoms: _380  and  _381
REMARK  159  A    between atoms: _384  and  _386
REMARK  160  A    between atoms: _386  and  _387
REMARK  161  A    between atoms: _386  and  _389
REMARK  162  A    between atoms: _389  and  _390
REMARK  163  A    between atoms: _393  and  _395
REMARK  164  A    between atoms: _395  and  _396
REMARK  165  A    between atoms: _395  and  _398
REMARK  166  A    between atoms: _401  and  _403
REMARK  167  A    between atoms: _403  and  _404
REMARK  168  A    between atoms: _403  and  _406
REMARK  169  A    between atoms: _406  and  _407
REMARK  170  A    between atoms: _407  and  _408
REMARK  171  A    between atoms: _408  and  _409
REMARK  172  A    between atoms: _409  and  _410
REMARK  173  A    between atoms: _414  and  _416
REMARK  174  A    between atoms: _416  and  _417
REMARK  175  A    between atoms: _416  and  _419
REMARK  176  A    between atoms: _419  and  _420
REMARK  177  A    between atoms: _420  and  _421
REMARK  178  A    between atoms: _423  and  _425
REMARK  179  A    between atoms: _425  and  _426
REMARK  180  A    between atoms: _425  and  _428
REMARK  181  A    between atoms: _428  and  _429
REMARK  182  A    between atoms: _432  and  _434
REMARK  183  A    between atoms: _434  and  _435
REMARK  184  A    between atoms: _437  and  _439
REMARK  185  A    between atoms: _439  and  _440
REMARK  186  A    between atoms: _442  and  _444
REMARK  187  A    between atoms: _444  and  _445
REMARK  188  A    between atoms: _444  and  _447
REMARK  189  A    between atoms: _447  and  _448
REMARK  190  A    between atoms: _451  and  _453
REMARK  191  A    between atoms: _453  and  _454
REMARK  192  A    between atoms: _456  and  _458
REMARK  193  A    between atoms: _458  and  _459
REMARK  194  A    between atoms: _461  and  _463
REMARK  195  A    between atoms: _463  and  _464
REMARK  196  A    between atoms: _463  and  _466
REMARK  197  A    between atoms: _466  and  _467
REMARK  198  A    between atoms: _473  and  _475
REMARK  199  A    between atoms: _475  and  _476
REMARK  200  A    between atoms: _475  and  _478
REMARK  201  A    between atoms: _478  and  _479
REMARK  202  A    between atoms: _482  and  _484
REMARK  203  A    between atoms: _484  and  _485
REMARK  204  A    between atoms: _484  and  _487
REMARK  205  A    between atoms: _490  and  _492
REMARK  206  A    between atoms: _492  and  _493
REMARK  207  A    between atoms: _492  and  _495
REMARK  208  A    between atoms: _495  and  _496
REMARK  209  A    between atoms: _499  and  _501
REMARK  210  A    between atoms: _501  and  _502
REMARK  211  A    between atoms: _501  and  _504
REMARK  212  A    between atoms: _504  and  _505
REMARK  213  A    between atoms: _509  and  _510
REMARK  214  A    between atoms: _515  and  _517
REMARK  215  A    between atoms: _517  and  _518
REMARK  216  A    between atoms: _517  and  _520
REMARK  217  A    between atoms: _523  and  _525
REMARK  218  A    between atoms: _525  and  _526
REMARK  219  A    between atoms: _525  and  _528
REMARK  220  A    between atoms: _528  and  _529
REMARK  221  A    between atoms: _534  and  _536
REMARK  222  A    between atoms: _536  and  _537
REMARK  223  A    between atoms: _536  and  _539
REMARK  224  A    between atoms: _539  and  _540
REMARK  225  A    between atoms: _543  and  _545
REMARK  226  A    between atoms: _545  and  _546
REMARK  227  A    between atoms: _545  and  _548
REMARK  228  A    between atoms: _548  and  _549
REMARK  229  A    between atoms: _552  and  _554
REMARK  230  A    between atoms: _554  and  _555
REMARK  231  A    between atoms: _557  and  _559
REMARK  232  A    between atoms: _559  and  _560
REMARK  233  A    between atoms: _559  and  _562
REMARK  234  A    between atoms: _562  and  _563
REMARK  235  A    between atoms: _563  and  _564
REMARK  236  A    between atoms: _564  and  _565
REMARK  237  A    between atoms: _574  and  _576
REMARK  238  A    between atoms: _576  and  _577
REMARK  239  A    between atoms: _576  and  _579
REMARK  240  A    between atoms: _579  and  _580
REMARK                            x       y       z     vdW  Elec       q    Type
REMARK                         _______ _______ _______ _____ _____    ______ ____
ROOT
ATOM      1  O   HOH     1      24.499  24.841  18.760  0.00  0.00    +0.000 OA
ENDROOT
TORSDOF 0
REMARK  Name = ../refined-set-2016/3kdc/3kdc_pocket.pdb
REMARK  240 active torsions:
REMARK  status: ('A' for Active; 'I' for Inactive)
REMARK    1  A    between atoms: _1  and  _3
REMARK    2  A    between atoms: _3  and  _4
REMARK    3  A    between atoms: _3  and  _6
REMARK    4  A    between atoms: _6  and  _7
REMARK    5  A    between atoms: _7  and  _8
REMARK    6  A    between atoms: _8  and  _9
REMARK    7  A    between atoms: _18  and  _20
REMARK    8  A    between atoms: _20  and  _21
REMARK    9  A    between atoms: _20  and  _23
REMARK   10  A    between atoms: _23  and  _24
REMARK   11  A    between atoms: _27  and  _29
REMARK   12  A    between atoms: _29  and  _30
REMARK   13  A    between atoms: _29  and  _32
REMARK   14  A    between atoms: _32  and  _33
REMARK   15  A    between atoms: _36  and  _38
REMARK   16  A    between atoms: _38  and  _39
REMARK   17  A    between atoms: _38  and  _41
REMARK   18  A    between atoms: _41  and  _42
REMARK   19  A    between atoms: _45  and  _47
REMARK   20  A    between atoms: _47  and  _48
REMARK   21  A    between atoms: _47  and  _50
REMARK   22  A    between atoms: _50  and  _51
REMARK   23  A    between atoms: _54  and  _56
REMARK   24  A    between atoms: _56  and  _57
REMARK   25  A    between atoms: _59  and  _61
REMARK   26  A    between atoms: _61  and  _62
REMARK   27  A    between atoms: _65  and  _67
REMARK   28  A    between atoms: _67  and  _68
REMARK   29  A    between atoms: _67  and  _70
REMARK   30  A    between atoms: _70  and  _71
REMARK   31  A    between atoms: _74  and  _76
REMARK   32  A    between atoms: _76  and  _77
REMARK   33  A    between atoms: _76  and  _79
REMARK   34  A    between atoms: _79  and  _80
REMARK   35  A    between atoms: _83  and  _85
REMARK   36  A    between atoms: _85  and  _86
REMARK   37  A    between atoms: _85  and  _88
REMARK   38  A    between atoms: _88  and  _89
REMARK   39  A    between atoms: _92  and  _94
REMARK   40  A    between atoms: _94  and  _95
REMARK   41  A    between atoms: _94  and  _97
REMARK   42  A    between atoms: _100  and  _102
REMARK   43  A    between atoms: _102  and  _103
REMARK   44  A    between atoms: _102  and  _105
REMARK   45  A    between atoms: _105  and  _106
REMARK   46  A    between atoms: _109  and  _111
REMARK   47  A    between atoms: _111  and  _112
REMARK   48  A    between atoms: _111  and  _114
REMARK   49  A    between atoms: _114  and  _115
REMARK   50  A    between atoms: _115  and  _116
REMARK   51  A    between atoms: _116  and  _117
REMARK   52  A    between atoms: _117  and  _118
REMARK   53  A    between atoms: _122  and  _124
REMARK   54  A    between atoms: _124  and  _125
REMARK   55  A    between atoms: _124  and  _127
REMARK   56  A    between atoms: _127  and  _128
REMARK   57  A    between atoms: _128  and  _129
REMARK   58  A    between atoms: _131  and  _133
REMARK   59  A    between atoms: _133  and  _134
REMARK   60  A    between atoms: _133  and  _136
REMARK   61  A    between atoms: _136  and  _137
REMARK   62  A    between atoms: _140  and  _142
REMARK   63  A    between atoms: _142  and  _143
REMARK   64  A    between atoms: _145  and  _147
REMARK   65  A    between atoms: _147  and  _148
REMARK   66  A    between atoms: _150  and  _152
REMARK   67  A    between atoms: _152  and  _153
REMARK   68  A    between atoms: _152  and  _155
REMARK   69  A    between atoms: _155  and  _156
REMARK   70  A    between atoms: _159  and  _161
REMARK   71  A    between atoms: _161  and  _162
REMARK   72  A    between atoms: _164  and  _166
REMARK   73  A    between atoms: _166  and  _167
REMARK   74  A    between atoms: _169  and  _171
REMARK   75  A    between atoms: _171  and  _172
REMARK   76  A    between atoms: _171  and  _174
REMARK   77  A    between atoms: _174  and  _175
REMARK   78  A    between atoms: _181  and  _183
REMARK   79  A    between atoms: _183  and  _184
REMARK   80  A    between atoms: _183  and  _186
REMARK   81  A    between atoms: _186  and  _187
REMARK   82  A    between atoms: _190  and  _192
REMARK   83  A    between atoms: _192  and  _193
REMARK   84  A    between atoms: _192  and  _195
REMARK   85  A    between atoms: _198  and  _200
REMARK   86  A    between atoms: _200  and  _201
REMARK   87  A    between atoms: _200  and  _203
REMARK   88  A    between atoms: _203  and  _204
REMARK   89  A    between atoms: _207  and  _209
REMARK   90  A    between atoms: _209  and  _210
REMARK   91  A    between atoms: _209  and  _212
REMARK   92  A    between atoms: _212  and  _213
REMARK   93  A    between atoms: _217  and  _218
REMARK   94  A    between atoms: _223  and  _225
REMARK   95  A    between atoms: _225  and  _226
REMARK   96  A    between atoms: _225  and  _228
REMARK   97  A    between atoms: _231  and  _233
REMARK   98  A    between atoms: _233  and  _234
REMARK   99  A    between atoms: _233  and  _236
REMARK  100  A    between atoms: _236  and  _237
REMARK  101  A    between atoms: _242  and  _244
REMARK  102  A    between atoms: _244  and  _245
REMARK  103  A    between atoms: _244  and  _247
REMARK  104  A    between atoms: _247  and  _248
REMARK  105  A    between atoms: _251  and  _253
REMARK  106  A    between atoms: _253  and  _254
REMARK  107  A    between atoms: _253  and  _256
REMARK  108  A    between atoms: _256  and  _257
REMARK  109  A    between atoms: _260  and  _262
REMARK  110  A    between atoms: _262  and  _263
REMARK  111  A    between atoms: _265  and  _267
REMARK  112  A    between atoms: _267  and  _268
REMARK  113  A    between atoms: _267  and  _270
REMARK  114  A    between atoms: _270  and  _271
REMARK  115  A    between atoms: _271  and  _272
REMARK  116  A    between atoms: _272  and  _273
REMARK  117  A    between atoms: _282  and  _284
REMARK  118  A    between atoms: _284  and  _285
REMARK  119  A    between atoms: _284  and  _287
REMARK  120  A    between atoms: _287  and  _288
REMARK  121  A    between atoms: _293  and  _295
REMARK  122  A    between atoms: _295  and  _296
REMARK  123  A    between atoms: _295  and  _298
REMARK  124  A    between atoms: _298  and  _299
REMARK  125  A    between atoms: _299  and  _300
REMARK  126  A    between atoms: _300  and  _301
REMARK  127  A    between atoms: _310  and  _312
REMARK  128  A    between atoms: _312  and  _313
REMARK  129  A    between atoms: _312  and  _315
REMARK  130  A    between atoms: _315  and  _316
REMARK  131  A    between atoms: _319  and  _321
REMARK  132  A    between atoms: _321  and  _322
REMARK  133  A    between atoms: _321  and  _324
REMARK  134  A    between atoms: _324  and  _325
REMARK  135  A    between atoms: _328  and  _330
REMARK  136  A    between atoms: _330  and  _331
REMARK  137  A    between atoms: _330  and  _333
REMARK  138  A    between atoms: _333  and  _334
REMARK  139  A    between atoms: _337  and  _339
REMARK  140  A    between atoms: _339  and  _340
REMARK  141  A    between atoms: _339  and  _342
REMARK  142  A    between atoms: _342  and  _343
REMARK  143  A    between atoms: _346  and  _348
REMARK  144  A    between atoms: _348  and  _349
REMARK  145  A    between atoms: _348  and  _351
REMARK  146  A    between atoms: _351  and  _352
REMARK  147  A    between atoms: _355  and  _357
REMARK  148  A    between atoms: _357  and  _358
REMARK  149  A    between atoms: _360  and  _362
REMARK  150  A    between atoms: _362  and  _363
REMARK  151  A    between atoms: _366  and  _368
REMARK  152  A    between atoms: _368  and  _369
REMARK  153  A    between atoms: _368  and  _371
REMARK  154  A    between atoms: _371  and  _372
REMARK  155  A    between atoms: _375  and  _377
REMARK  156  A    between atoms: _377  and  _378
REMARK  157  A    between atoms: _377  and  _380
REMARK  158  A    between atoms: _380  and  _381
REMARK  159  A    between atoms: _384  and  _386
REMARK  160  A    between atoms: _386  and  _387
REMARK  161  A    between atoms: _386  and  _389
REMARK  162  A    between atoms: _389  and  _390
REMARK  163  A    between atoms: _393  and  _395
REMARK  164  A    between atoms: _395  and  _396
REMARK  165  A    between atoms: _395  and  _398
REMARK  166  A    between atoms: _401  and  _403
REMARK  167  A    between atoms: _403  and  _404
REMARK  168  A    between atoms: _403  and  _406
REMARK  169  A    between atoms: _406  and  _407
REMARK  170  A    between atoms: _407  and  _408
REMARK  171  A    between atoms: _408  and  _409
REMARK  172  A    between atoms: _409  and  _410
REMARK  173  A    between atoms: _414  and  _416
REMARK  174  A    between atoms: _416  and  _417
REMARK  175  A    between atoms: _416  and  _419
REMARK  176  A    between atoms: _419  and  _420
REMARK  177  A    between atoms: _420  and  _421
REMARK  178  A    between atoms: _423  and  _425
REMARK  179  A    between atoms: _425  and  _426
REMARK  180  A    between atoms: _425  and  _428
REMARK  181  A    between atoms: _428  and  _429
REMARK  182  A    between atoms: _432  and  _434
REMARK  183  A    between atoms: _434  and  _435
REMARK  184  A    between atoms: _437  and  _439
REMARK  185  A    between atoms: _439  and  _440
REMARK  186  A    between atoms: _442  and  _444
REMARK  187  A    between atoms: _444  and  _445
REMARK  188  A    between atoms: _444  and  _447
REMARK  189  A    between atoms: _447  and  _448
REMARK  190  A    between atoms: _451  and  _453
REMARK  191  A    between atoms: _453  and  _454
REMARK  192  A    between atoms: _456  and  _458
REMARK  193  A    between atoms: _458  and  _459
REMARK  194  A    between atoms: _461  and  _463
REMARK  195  A    between atoms: _463  and  _464
REMARK  196  A    between atoms: _463  and  _466
REMARK  197  A    between atoms: _466  and  _467
REMARK  198  A    between atoms: _473  and  _475
REMARK  199  A    between atoms: _475  and  _476
REMARK  200  A    between atoms: _475  and  _478
REMARK  201  A    between atoms: _478  and  _479
REMARK  202  A    between atoms: _482  and  _484
REMARK  203  A    between atoms: _484  and  _485
REMARK  204  A    between atoms: _484  and  _487
REMARK  205  A    between atoms: _490  and  _492
REMARK  206  A    between atoms: _492  and  _493
REMARK  207  A    between atoms: _492  and  _495
REMARK  208  A    between atoms: _495  and  _496
REMARK  209  A    between atoms: _499  and  _501
REMARK  210  A    between atoms: _501  and  _502
REMARK  211  A    between atoms: _501  and  _504
REMARK  212  A    between atoms: _504  and  _505
REMARK  213  A    between atoms: _509  and  _510
REMARK  214  A    between atoms: _515  and  _517
REMARK  215  A    between atoms: _517  and  _518
REMARK  216  A    between atoms: _517  and  _520
REMARK  217  A    between atoms: _523  and  _525
REMARK  218  A    between atoms: _525  and  _526
REMARK  219  A    between atoms: _525  and  _528
REMARK  220  A    between atoms: _528  and  _529
REMARK  221  A    between atoms: _534  and  _536
REMARK  222  A    between atoms: _536  and  _537
REMARK  223  A    between atoms: _536  and  _539
REMARK  224  A    between atoms: _539  and  _540
REMARK  225  A    between atoms: _543  and  _545
REMARK  226  A    between atoms: _545  and  _546
REMARK  227  A    between atoms: _545  and  _548
REMARK  228  A    between atoms: _548  and  _549
REMARK  229  A    between atoms: _552  and  _554
REMARK  230  A    between atoms: _554  and  _555
REMARK  231  A    between atoms: _557  and  _559
REMARK  232  A    between atoms: _559  and  _560
REMARK  233  A    between atoms: _559  and  _562
REMARK  234  A    between atoms: _562  and  _563
REMARK  235  A    between atoms: _563  and  _564
REMARK  236  A    between atoms: _564  and  _565
REMARK  237  A    between atoms: _574  and  _576
REMARK  238  A    between atoms: _576  and  _577
REMARK  239  A    between atoms: _576  and  _579
REMARK  240  A    between atoms: _579  and  _580
REMARK                            x       y       z     vdW  Elec       q    Type
REMARK                         _______ _______ _______ _____ _____    ______ ____
ROOT
ATOM      1  O   HOH     1      18.119  20.897  16.811  0.00  0.00    +0.000 OA
ENDROOT
TORSDOF 0
REMARK  Name = ../refined-set-2016/3kdc/3kdc_pocket.pdb
REMARK  240 active torsions:
REMARK  status: ('A' for Active; 'I' for Inactive)
REMARK    1  A    between atoms: _1  and  _3
REMARK    2  A    between atoms: _3  and  _4
REMARK    3  A    between atoms: _3  and  _6
REMARK    4  A    between atoms: _6  and  _7
REMARK    5  A    between atoms: _7  and  _8
REMARK    6  A    between atoms: _8  and  _9
REMARK    7  A    between atoms: _18  and  _20
REMARK    8  A    between atoms: _20  and  _21
REMARK    9  A    between atoms: _20  and  _23
REMARK   10  A    between atoms: _23  and  _24
REMARK   11  A    between atoms: _27  and  _29
REMARK   12  A    between atoms: _29  and  _30
REMARK   13  A    between atoms: _29  and  _32
REMARK   14  A    between atoms: _32  and  _33
REMARK   15  A    between atoms: _36  and  _38
REMARK   16  A    between atoms: _38  and  _39
REMARK   17  A    between atoms: _38  and  _41
REMARK   18  A    between atoms: _41  and  _42
REMARK   19  A    between atoms: _45  and  _47
REMARK   20  A    between atoms: _47  and  _48
REMARK   21  A    between atoms: _47  and  _50
REMARK   22  A    between atoms: _50  and  _51
REMARK   23  A    between atoms: _54  and  _56
REMARK   24  A    between atoms: _56  and  _57
REMARK   25  A    between atoms: _59  and  _61
REMARK   26  A    between atoms: _61  and  _62
REMARK   27  A    between atoms: _65  and  _67
REMARK   28  A    between atoms: _67  and  _68
REMARK   29  A    between atoms: _67  and  _70
REMARK   30  A    between atoms: _70  and  _71
REMARK   31  A    between atoms: _74  and  _76
REMARK   32  A    between atoms: _76  and  _77
REMARK   33  A    between atoms: _76  and  _79
REMARK   34  A    between atoms: _79  and  _80
REMARK   35  A    between atoms: _83  and  _85
REMARK   36  A    between atoms: _85  and  _86
REMARK   37  A    between atoms: _85  and  _88
REMARK   38  A    between atoms: _88  and  _89
REMARK   39  A    between atoms: _92  and  _94
REMARK   40  A    between atoms: _94  and  _95
REMARK   41  A    between atoms: _94  and  _97
REMARK   42  A    between atoms: _100  and  _102
REMARK   43  A    between atoms: _102  and  _103
REMARK   44  A    between atoms: _102  and  _105
REMARK   45  A    between atoms: _105  and  _106
REMARK   46  A    between atoms: _109  and  _111
REMARK   47  A    between atoms: _111  and  _112
REMARK   48  A    between atoms: _111  and  _114
REMARK   49  A    between atoms: _114  and  _115
REMARK   50  A    between atoms: _115  and  _116
REMARK   51  A    between atoms: _116  and  _117
REMARK   52  A    between atoms: _117  and  _118
REMARK   53  A    between atoms: _122  and  _124
REMARK   54  A    between atoms: _124  and  _125
REMARK   55  A    between atoms: _124  and  _127
REMARK   56  A    between atoms: _127  and  _128
REMARK   57  A    between atoms: _128  and  _129
REMARK   58  A    between atoms: _131  and  _133
REMARK   59  A    between atoms: _133  and  _134
REMARK   60  A    between atoms: _133  and  _136
REMARK   61  A    between atoms: _136  and  _137
REMARK   62  A    between atoms: _140  and  _142
REMARK   63  A    between atoms: _142  and  _143
REMARK   64  A    between atoms: _145  and  _147
REMARK   65  A    between atoms: _147  and  _148
REMARK   66  A    between atoms: _150  and  _152
REMARK   67  A    between atoms: _152  and  _153
REMARK   68  A    between atoms: _152  and  _155
REMARK   69  A    between atoms: _155  and  _156
REMARK   70  A    between atoms: _159  and  _161
REMARK   71  A    between atoms: _161  and  _162
REMARK   72  A    between atoms: _164  and  _166
REMARK   73  A    between atoms: _166  and  _167
REMARK   74  A    between atoms: _169  and  _171
REMARK   75  A    between atoms: _171  and  _172
REMARK   76  A    between atoms: _171  and  _174
REMARK   77  A    between atoms: _174  and  _175
REMARK   78  A    between atoms: _181  and  _183
REMARK   79  A    between atoms: _183  and  _184
REMARK   80  A    between atoms: _183  and  _186
REMARK   81  A    between atoms: _186  and  _187
REMARK   82  A    between atoms: _190  and  _192
REMARK   83  A    between atoms: _192  and  _193
REMARK   84  A    between atoms: _192  and  _195
REMARK   85  A    between atoms: _198  and  _200
REMARK   86  A    between atoms: _200  and  _201
REMARK   87  A    between atoms: _200  and  _203
REMARK   88  A    between atoms: _203  and  _204
REMARK   89  A    between atoms: _207  and  _209
REMARK   90  A    between atoms: _209  and  _210
REMARK   91  A    between atoms: _209  and  _212
REMARK   92  A    between atoms: _212  and  _213
REMARK   93  A    between atoms: _217  and  _218
REMARK   94  A    between atoms: _223  and  _225
REMARK   95  A    between atoms: _225  and  _226
REMARK   96  A    between atoms: _225  and  _228
REMARK   97  A    between atoms: _231  and  _233
REMARK   98  A    between atoms: _233  and  _234
REMARK   99  A    between atoms: _233  and  _236
REMARK  100  A    between atoms: _236  and  _237
REMARK  101  A    between atoms: _242  and  _244
REMARK  102  A    between atoms: _244  and  _245
REMARK  103  A    between atoms: _244  and  _247
REMARK  104  A    between atoms: _247  and  _248
REMARK  105  A    between atoms: _251  and  _253
REMARK  106  A    between atoms: _253  and  _254
REMARK  107  A    between atoms: _253  and  _256
REMARK  108  A    between atoms: _256  and  _257
REMARK  109  A    between atoms: _260  and  _262
REMARK  110  A    between atoms: _262  and  _263
REMARK  111  A    between atoms: _265  and  _267
REMARK  112  A    between atoms: _267  and  _268
REMARK  113  A    between atoms: _267  and  _270
REMARK  114  A    between atoms: _270  and  _271
REMARK  115  A    between atoms: _271  and  _272
REMARK  116  A    between atoms: _272  and  _273
REMARK  117  A    between atoms: _282  and  _284
REMARK  118  A    between atoms: _284  and  _285
REMARK  119  A    between atoms: _284  and  _287
REMARK  120  A    between atoms: _287  and  _288
REMARK  121  A    between atoms: _293  and  _295
REMARK  122  A    between atoms: _295  and  _296
REMARK  123  A    between atoms: _295  and  _298
REMARK  124  A    between atoms: _298  and  _299
REMARK  125  A    between atoms: _299  and  _300
REMARK  126  A    between atoms: _300  and  _301
REMARK  127  A    between atoms: _310  and  _312
REMARK  128  A    between atoms: _312  and  _313
REMARK  129  A    between atoms: _312  and  _315
REMARK  130  A    between atoms: _315  and  _316
REMARK  131  A    between atoms: _319  and  _321
REMARK  132  A    between atoms: _321  and  _322
REMARK  133  A    between atoms: _321  and  _324
REMARK  134  A    between atoms: _324  and  _325
REMARK  135  A    between atoms: _328  and  _330
REMARK  136  A    between atoms: _330  and  _331
REMARK  137  A    between atoms: _330  and  _333
REMARK  138  A    between atoms: _333  and  _334
REMARK  139  A    between atoms: _337  and  _339
REMARK  140  A    between atoms: _339  and  _340
REMARK  141  A    between atoms: _339  and  _342
REMARK  142  A    between atoms: _342  and  _343
REMARK  143  A    between atoms: _346  and  _348
REMARK  144  A    between atoms: _348  and  _349
REMARK  145  A    between atoms: _348  and  _351
REMARK  146  A    between atoms: _351  and  _352
REMARK  147  A    between atoms: _355  and  _357
REMARK  148  A    between atoms: _357  and  _358
REMARK  149  A    between atoms: _360  and  _362
REMARK  150  A    between atoms: _362  and  _363
REMARK  151  A    between atoms: _366  and  _368
REMARK  152  A    between atoms: _368  and  _369
REMARK  153  A    between atoms: _368  and  _371
REMARK  154  A    between atoms: _371  and  _372
REMARK  155  A    between atoms: _375  and  _377
REMARK  156  A    between atoms: _377  and  _378
REMARK  157  A    between atoms: _377  and  _380
REMARK  158  A    between atoms: _380  and  _381
REMARK  159  A    between atoms: _384  and  _386
REMARK  160  A    between atoms: _386  and  _387
REMARK  161  A    between atoms: _386  and  _389
REMARK  162  A    between atoms: _389  and  _390
REMARK  163  A    between atoms: _393  and  _395
REMARK  164  A    between atoms: _395  and  _396
REMARK  165  A    between atoms: _395  and  _398
REMARK  166  A    between atoms: _401  and  _403
REMARK  167  A    between atoms: _403  and  _404
REMARK  168  A    between atoms: _403  and  _406
REMARK  169  A    between atoms: _406  and  _407
REMARK  170  A    between atoms: _407  and  _408
REMARK  171  A    between atoms: _408  and  _409
REMARK  172  A    between atoms: _409  and  _410
REMARK  173  A    between atoms: _414  and  _416
REMARK  174  A    between atoms: _416  and  _417
REMARK  175  A    between atoms: _416  and  _419
REMARK  176  A    between atoms: _419  and  _420
REMARK  177  A    between atoms: _420  and  _421
REMARK  178  A    between atoms: _423  and  _425
REMARK  179  A    between atoms: _425  and  _426
REMARK  180  A    between atoms: _425  and  _428
REMARK  181  A    between atoms: _428  and  _429
REMARK  182  A    between atoms: _432  and  _434
REMARK  183  A    between atoms: _434  and  _435
REMARK  184  A    between atoms: _437  and  _439
REMARK  185  A    between atoms: _439  and  _440
REMARK  186  A    between atoms: _442  and  _444
REMARK  187  A    between atoms: _444  and  _445
REMARK  188  A    between atoms: _444  and  _447
REMARK  189  A    between atoms: _447  and  _448
REMARK  190  A    between atoms: _451  and  _453
REMARK  191  A    between atoms: _453  and  _454
REMARK  192  A    between atoms: _456  and  _458
REMARK  193  A    between atoms: _458  and  _459
REMARK  194  A    between atoms: _461  and  _463
REMARK  195  A    between atoms: _463  and  _464
REMARK  196  A    between atoms: _463  and  _466
REMARK  197  A    between atoms: _466  and  _467
REMARK  198  A    between atoms: _473  and  _475
REMARK  199  A    between atoms: _475  and  _476
REMARK  200  A    between atoms: _475  and  _478
REMARK  201  A    between atoms: _478  and  _479
REMARK  202  A    between atoms: _482  and  _484
REMARK  203  A    between atoms: _484  and  _485
REMARK  204  A    between atoms: _484  and  _487
REMARK  205  A    between atoms: _490  and  _492
REMARK  206  A    between atoms: _492  and  _493
REMARK  207  A    between atoms: _492  and  _495
REMARK  208  A    between atoms: _495  and  _496
REMARK  209  A    between atoms: _499  and  _501
REMARK  210  A    between atoms: _501  and  _502
REMARK  211  A    between atoms: _501  and  _504
REMARK  212  A    between atoms: _504  and  _505
REMARK  213  A    between atoms: _509  and  _510
REMARK  214  A    between atoms: _515  and  _517
REMARK  215  A    between atoms: _517  and  _518
REMARK  216  A    between atoms: _517  and  _520
REMARK  217  A    between atoms: _523  and  _525
REMARK  218  A    between atoms: _525  and  _526
REMARK  219  A    between atoms: _525  and  _528
REMARK  220  A    between atoms: _528  and  _529
REMARK  221  A    between atoms: _534  and  _536
REMARK  222  A    between atoms: _536  and  _537
REMARK  223  A    between atoms: _536  and  _539
REMARK  224  A    between atoms: _539  and  _540
REMARK  225  A    between atoms: _543  and  _545
REMARK  226  A    between atoms: _545  and  _546
REMARK  227  A    between atoms: _545  and  _548
REMARK  228  A    between atoms: _548  and  _549
REMARK  229  A    between atoms: _552  and  _554
REMARK  230  A    between atoms: _554  and  _555
REMARK  231  A    between atoms: _557  and  _559
REMARK  232  A    between atoms: _559  and  _560
REMARK  233  A    between atoms: _559  and  _562
REMARK  234  A    between atoms: _562  and  _563
REMARK  235  A    between atoms: _563  and  _564
REMARK  236  A    between atoms: _564  and  _565
REMARK  237  A    between atoms: _574  and  _576
REMARK  238  A    between atoms: _576  and  _577
REMARK  239  A    between atoms: _576  and  _579
REMARK  240  A    between atoms: _579  and  _580
REMARK                            x       y       z     vdW  Elec       q    Type
REMARK                         _______ _______ _______ _____ _____    ______ ____
ROOT
ATOM      1  O   HOH     1      26.010  30.500  16.947  0.00  0.00    +0.000 OA
ENDROOT
TORSDOF 0
REMARK  Name = ../refined-set-2016/3kdc/3kdc_pocket.pdb
REMARK  240 active torsions:
REMARK  status: ('A' for Active; 'I' for Inactive)
REMARK    1  A    between atoms: _1  and  _3
REMARK    2  A    between atoms: _3  and  _4
REMARK    3  A    between atoms: _3  and  _6
REMARK    4  A    between atoms: _6  and  _7
REMARK    5  A    between atoms: _7  and  _8
REMARK    6  A    between atoms: _8  and  _9
REMARK    7  A    between atoms: _18  and  _20
REMARK    8  A    between atoms: _20  and  _21
REMARK    9  A    between atoms: _20  and  _23
REMARK   10  A    between atoms: _23  and  _24
REMARK   11  A    between atoms: _27  and  _29
REMARK   12  A    between atoms: _29  and  _30
REMARK   13  A    between atoms: _29  and  _32
REMARK   14  A    between atoms: _32  and  _33
REMARK   15  A    between atoms: _36  and  _38
REMARK   16  A    between atoms: _38  and  _39
REMARK   17  A    between atoms: _38  and  _41
REMARK   18  A    between atoms: _41  and  _42
REMARK   19  A    between atoms: _45  and  _47
REMARK   20  A    between atoms: _47  and  _48
REMARK   21  A    between atoms: _47  and  _50
REMARK   22  A    between atoms: _50  and  _51
REMARK   23  A    between atoms: _54  and  _56
REMARK   24  A    between atoms: _56  and  _57
REMARK   25  A    between atoms: _59  and  _61
REMARK   26  A    between atoms: _61  and  _62
REMARK   27  A    between atoms: _65  and  _67
REMARK   28  A    between atoms: _67  and  _68
REMARK   29  A    between atoms: _67  and  _70
REMARK   30  A    between atoms: _70  and  _71
REMARK   31  A    between atoms: _74  and  _76
REMARK   32  A    between atoms: _76  and  _77
REMARK   33  A    between atoms: _76  and  _79
REMARK   34  A    between atoms: _79  and  _80
REMARK   35  A    between atoms: _83  and  _85
REMARK   36  A    between atoms: _85  and  _86
REMARK   37  A    between atoms: _85  and  _88
REMARK   38  A    between atoms: _88  and  _89
REMARK   39  A    between atoms: _92  and  _94
REMARK   40  A    between atoms: _94  and  _95
REMARK   41  A    between atoms: _94  and  _97
REMARK   42  A    between atoms: _100  and  _102
REMARK   43  A    between atoms: _102  and  _103
REMARK   44  A    between atoms: _102  and  _105
REMARK   45  A    between atoms: _105  and  _106
REMARK   46  A    between atoms: _109  and  _111
REMARK   47  A    between atoms: _111  and  _112
REMARK   48  A    between atoms: _111  and  _114
REMARK   49  A    between atoms: _114  and  _115
REMARK   50  A    between atoms: _115  and  _116
REMARK   51  A    between atoms: _116  and  _117
REMARK   52  A    between atoms: _117  and  _118
REMARK   53  A    between atoms: _122  and  _124
REMARK   54  A    between atoms: _124  and  _125
REMARK   55  A    between atoms: _124  and  _127
REMARK   56  A    between atoms: _127  and  _128
REMARK   57  A    between atoms: _128  and  _129
REMARK   58  A    between atoms: _131  and  _133
REMARK   59  A    between atoms: _133  and  _134
REMARK   60  A    between atoms: _133  and  _136
REMARK   61  A    between atoms: _136  and  _137
REMARK   62  A    between atoms: _140  and  _142
REMARK   63  A    between atoms: _142  and  _143
REMARK   64  A    between atoms: _145  and  _147
REMARK   65  A    between atoms: _147  and  _148
REMARK   66  A    between atoms: _150  and  _152
REMARK   67  A    between atoms: _152  and  _153
REMARK   68  A    between atoms: _152  and  _155
REMARK   69  A    between atoms: _155  and  _156
REMARK   70  A    between atoms: _159  and  _161
REMARK   71  A    between atoms: _161  and  _162
REMARK   72  A    between atoms: _164  and  _166
REMARK   73  A    between atoms: _166  and  _167
REMARK   74  A    between atoms: _169  and  _171
REMARK   75  A    between atoms: _171  and  _172
REMARK   76  A    between atoms: _171  and  _174
REMARK   77  A    between atoms: _174  and  _175
REMARK   78  A    between atoms: _181  and  _183
REMARK   79  A    between atoms: _183  and  _184
REMARK   80  A    between atoms: _183  and  _186
REMARK   81  A    between atoms: _186  and  _187
REMARK   82  A    between atoms: _190  and  _192
REMARK   83  A    between atoms: _192  and  _193
REMARK   84  A    between atoms: _192  and  _195
REMARK   85  A    between atoms: _198  and  _200
REMARK   86  A    between atoms: _200  and  _201
REMARK   87  A    between atoms: _200  and  _203
REMARK   88  A    between atoms: _203  and  _204
REMARK   89  A    between atoms: _207  and  _209
REMARK   90  A    between atoms: _209  and  _210
REMARK   91  A    between atoms: _209  and  _212
REMARK   92  A    between atoms: _212  and  _213
REMARK   93  A    between atoms: _217  and  _218
REMARK   94  A    between atoms: _223  and  _225
REMARK   95  A    between atoms: _225  and  _226
REMARK   96  A    between atoms: _225  and  _228
REMARK   97  A    between atoms: _231  and  _233
REMARK   98  A    between atoms: _233  and  _234
REMARK   99  A    between atoms: _233  and  _236
REMARK  100  A    between atoms: _236  and  _237
REMARK  101  A    between atoms: _242  and  _244
REMARK  102  A    between atoms: _244  and  _245
REMARK  103  A    between atoms: _244  and  _247
REMARK  104  A    between atoms: _247  and  _248
REMARK  105  A    between atoms: _251  and  _253
REMARK  106  A    between atoms: _253  and  _254
REMARK  107  A    between atoms: _253  and  _256
REMARK  108  A    between atoms: _256  and  _257
REMARK  109  A    between atoms: _260  and  _262
REMARK  110  A    between atoms: _262  and  _263
REMARK  111  A    between atoms: _265  and  _267
REMARK  112  A    between atoms: _267  and  _268
REMARK  113  A    between atoms: _267  and  _270
REMARK  114  A    between atoms: _270  and  _271
REMARK  115  A    between atoms: _271  and  _272
REMARK  116  A    between atoms: _272  and  _273
REMARK  117  A    between atoms: _282  and  _284
REMARK  118  A    between atoms: _284  and  _285
REMARK  119  A    between atoms: _284  and  _287
REMARK  120  A    between atoms: _287  and  _288
REMARK  121  A    between atoms: _293  and  _295
REMARK  122  A    between atoms: _295  and  _296
REMARK  123  A    between atoms: _295  and  _298
REMARK  124  A    between atoms: _298  and  _299
REMARK  125  A    between atoms: _299  and  _300
REMARK  126  A    between atoms: _300  and  _301
REMARK  127  A    between atoms: _310  and  _312
REMARK  128  A    between atoms: _312  and  _313
REMARK  129  A    between atoms: _312  and  _315
REMARK  130  A    between atoms: _315  and  _316
REMARK  131  A    between atoms: _319  and  _321
REMARK  132  A    between atoms: _321  and  _322
REMARK  133  A    between atoms: _321  and  _324
REMARK  134  A    between atoms: _324  and  _325
REMARK  135  A    between atoms: _328  and  _330
REMARK  136  A    between atoms: _330  and  _331
REMARK  137  A    between atoms: _330  and  _333
REMARK  138  A    between atoms: _333  and  _334
REMARK  139  A    between atoms: _337  and  _339
REMARK  140  A    between atoms: _339  and  _340
REMARK  141  A    between atoms: _339  and  _342
REMARK  142  A    between atoms: _342  and  _343
REMARK  143  A    between atoms: _346  and  _348
REMARK  144  A    between atoms: _348  and  _349
REMARK  145  A    between atoms: _348  and  _351
REMARK  146  A    between atoms: _351  and  _352
REMARK  147  A    between atoms: _355  and  _357
REMARK  148  A    between atoms: _357  and  _358
REMARK  149  A    between atoms: _360  and  _362
REMARK  150  A    between atoms: _362  and  _363
REMARK  151  A    between atoms: _366  and  _368
REMARK  152  A    between atoms: _368  and  _369
REMARK  153  A    between atoms: _368  and  _371
REMARK  154  A    between atoms: _371  and  _372
REMARK  155  A    between atoms: _375  and  _377
REMARK  156  A    between atoms: _377  and  _378
REMARK  157  A    between atoms: _377  and  _380
REMARK  158  A    between atoms: _380  and  _381
REMARK  159  A    between atoms: _384  and  _386
REMARK  160  A    between atoms: _386  and  _387
REMARK  161  A    between atoms: _386  and  _389
REMARK  162  A    between atoms: _389  and  _390
REMARK  163  A    between atoms: _393  and  _395
REMARK  164  A    between atoms: _395  and  _396
REMARK  165  A    between atoms: _395  and  _398
REMARK  166  A    between atoms: _401  and  _403
REMARK  167  A    between atoms: _403  and  _404
REMARK  168  A    between atoms: _403  and  _406
REMARK  169  A    between atoms: _406  and  _407
REMARK  170  A    between atoms: _407  and  _408
REMARK  171  A    between atoms: _408  and  _409
REMARK  172  A    between atoms: _409  and  _410
REMARK  173  A    between atoms: _414  and  _416
REMARK  174  A    between atoms: _416  and  _417
REMARK  175  A    between atoms: _416  and  _419
REMARK  176  A    between atoms: _419  and  _420
REMARK  177  A    between atoms: _420  and  _421
REMARK  178  A    between atoms: _423  and  _425
REMARK  179  A    between atoms: _425  and  _426
REMARK  180  A    between atoms: _425  and  _428
REMARK  181  A    between atoms: _428  and  _429
REMARK  182  A    between atoms: _432  and  _434
REMARK  183  A    between atoms: _434  and  _435
REMARK  184  A    between atoms: _437  and  _439
REMARK  185  A    between atoms: _439  and  _440
REMARK  186  A    between atoms: _442  and  _444
REMARK  187  A    between atoms: _444  and  _445
REMARK  188  A    between atoms: _444  and  _447
REMARK  189  A    between atoms: _447  and  _448
REMARK  190  A    between atoms: _451  and  _453
REMARK  191  A    between atoms: _453  and  _454
REMARK  192  A    between atoms: _456  and  _458
REMARK  193  A    between atoms: _458  and  _459
REMARK  194  A    between atoms: _461  and  _463
REMARK  195  A    between atoms: _463  and  _464
REMARK  196  A    between atoms: _463  and  _466
REMARK  197  A    between atoms: _466  and  _467
REMARK  198  A    between atoms: _473  and  _475
REMARK  199  A    between atoms: _475  and  _476
REMARK  200  A    between atoms: _475  and  _478
REMARK  201  A    between atoms: _478  and  _479
REMARK  202  A    between atoms: _482  and  _484
REMARK  203  A    between atoms: _484  and  _485
REMARK  204  A    between atoms: _484  and  _487
REMARK  205  A    between atoms: _490  and  _492
REMARK  206  A    between atoms: _492  and  _493
REMARK  207  A    between atoms: _492  and  _495
REMARK  208  A    between atoms: _495  and  _496
REMARK  209  A    between atoms: _499  and  _501
REMARK  210  A    between atoms: _501  and  _502
REMARK  211  A    between atoms: _501  and  _504
REMARK  212  A    between atoms: _504  and  _505
REMARK  213  A    between atoms: _509  and  _510
REMARK  214  A    between atoms: _515  and  _517
REMARK  215  A    between atoms: _517  and  _518
REMARK  216  A    between atoms: _517  and  _520
REMARK  217  A    between atoms: _523  and  _525
REMARK  218  A    between atoms: _525  and  _526
REMARK  219  A    between atoms: _525  and  _528
REMARK  220  A    between atoms: _528  and  _529
REMARK  221  A    between atoms: _534  and  _536
REMARK  222  A    between atoms: _536  and  _537
REMARK  223  A    between atoms: _536  and  _539
REMARK  224  A    between atoms: _539  and  _540
REMARK  225  A    between atoms: _543  and  _545
REMARK  226  A    between atoms: _545  and  _546
REMARK  227  A    between atoms: _545  and  _548
REMARK  228  A    between atoms: _548  and  _549
REMARK  229  A    between atoms: _552  and  _554
REMARK  230  A    between atoms: _554  and  _555
REMARK  231  A    between atoms: _557  and  _559
REMARK  232  A    between atoms: _559  and  _560
REMARK  233  A    between atoms: _559  and  _562
REMARK  234  A    between atoms: _562  and  _563
REMARK  235  A    between atoms: _563  and  _564
REMARK  236  A    between atoms: _564  and  _565
REMARK  237  A    between atoms: _574  and  _576
REMARK  238  A    between atoms: _576  and  _577
REMARK  239  A    between atoms: _576  and  _579
REMARK  240  A    between atoms: _579  and  _580
REMARK                            x       y       z     vdW  Elec       q    Type
REMARK                         _______ _______ _______ _____ _____    ______ ____
ROOT
ATOM      1  O   HOH     1      24.622  34.041  15.779  0.00  0.00    +0.000 OA
ENDROOT
TORSDOF 0
REMARK  Name = ../refined-set-2016/3kdc/3kdc_pocket.pdb
REMARK  240 active torsions:
REMARK  status: ('A' for Active; 'I' for Inactive)
REMARK    1  A    between atoms: _1  and  _3
REMARK    2  A    between atoms: _3  and  _4
REMARK    3  A    between atoms: _3  and  _6
REMARK    4  A    between atoms: _6  and  _7
REMARK    5  A    between atoms: _7  and  _8
REMARK    6  A    between atoms: _8  and  _9
REMARK    7  A    between atoms: _18  and  _20
REMARK    8  A    between atoms: _20  and  _21
REMARK    9  A    between atoms: _20  and  _23
REMARK   10  A    between atoms: _23  and  _24
REMARK   11  A    between atoms: _27  and  _29
REMARK   12  A    between atoms: _29  and  _30
REMARK   13  A    between atoms: _29  and  _32
REMARK   14  A    between atoms: _32  and  _33
REMARK   15  A    between atoms: _36  and  _38
REMARK   16  A    between atoms: _38  and  _39
REMARK   17  A    between atoms: _38  and  _41
REMARK   18  A    between atoms: _41  and  _42
REMARK   19  A    between atoms: _45  and  _47
REMARK   20  A    between atoms: _47  and  _48
REMARK   21  A    between atoms: _47  and  _50
REMARK   22  A    between atoms: _50  and  _51
REMARK   23  A    between atoms: _54  and  _56
REMARK   24  A    between atoms: _56  and  _57
REMARK   25  A    between atoms: _59  and  _61
REMARK   26  A    between atoms: _61  and  _62
REMARK   27  A    between atoms: _65  and  _67
REMARK   28  A    between atoms: _67  and  _68
REMARK   29  A    between atoms: _67  and  _70
REMARK   30  A    between atoms: _70  and  _71
REMARK   31  A    between atoms: _74  and  _76
REMARK   32  A    between atoms: _76  and  _77
REMARK   33  A    between atoms: _76  and  _79
REMARK   34  A    between atoms: _79  and  _80
REMARK   35  A    between atoms: _83  and  _85
REMARK   36  A    between atoms: _85  and  _86
REMARK   37  A    between atoms: _85  and  _88
REMARK   38  A    between atoms: _88  and  _89
REMARK   39  A    between atoms: _92  and  _94
REMARK   40  A    between atoms: _94  and  _95
REMARK   41  A    between atoms: _94  and  _97
REMARK   42  A    between atoms: _100  and  _102
REMARK   43  A    between atoms: _102  and  _103
REMARK   44  A    between atoms: _102  and  _105
REMARK   45  A    between atoms: _105  and  _106
REMARK   46  A    between atoms: _109  and  _111
REMARK   47  A    between atoms: _111  and  _112
REMARK   48  A    between atoms: _111  and  _114
REMARK   49  A    between atoms: _114  and  _115
REMARK   50  A    between atoms: _115  and  _116
REMARK   51  A    between atoms: _116  and  _117
REMARK   52  A    between atoms: _117  and  _118
REMARK   53  A    between atoms: _122  and  _124
REMARK   54  A    between atoms: _124  and  _125
REMARK   55  A    between atoms: _124  and  _127
REMARK   56  A    between atoms: _127  and  _128
REMARK   57  A    between atoms: _128  and  _129
REMARK   58  A    between atoms: _131  and  _133
REMARK   59  A    between atoms: _133  and  _134
REMARK   60  A    between atoms: _133  and  _136
REMARK   61  A    between atoms: _136  and  _137
REMARK   62  A    between atoms: _140  and  _142
REMARK   63  A    between atoms: _142  and  _143
REMARK   64  A    between atoms: _145  and  _147
REMARK   65  A    between atoms: _147  and  _148
REMARK   66  A    between atoms: _150  and  _152
REMARK   67  A    between atoms: _152  and  _153
REMARK   68  A    between atoms: _152  and  _155
REMARK   69  A    between atoms: _155  and  _156
REMARK   70  A    between atoms: _159  and  _161
REMARK   71  A    between atoms: _161  and  _162
REMARK   72  A    between atoms: _164  and  _166
REMARK   73  A    between atoms: _166  and  _167
REMARK   74  A    between atoms: _169  and  _171
REMARK   75  A    between atoms: _171  and  _172
REMARK   76  A    between atoms: _171  and  _174
REMARK   77  A    between atoms: _174  and  _175
REMARK   78  A    between atoms: _181  and  _183
REMARK   79  A    between atoms: _183  and  _184
REMARK   80  A    between atoms: _183  and  _186
REMARK   81  A    between atoms: _186  and  _187
REMARK   82  A    between atoms: _190  and  _192
REMARK   83  A    between atoms: _192  and  _193
REMARK   84  A    between atoms: _192  and  _195
REMARK   85  A    between atoms: _198  and  _200
REMARK   86  A    between atoms: _200  and  _201
REMARK   87  A    between atoms: _200  and  _203
REMARK   88  A    between atoms: _203  and  _204
REMARK   89  A    between atoms: _207  and  _209
REMARK   90  A    between atoms: _209  and  _210
REMARK   91  A    between atoms: _209  and  _212
REMARK   92  A    between atoms: _212  and  _213
REMARK   93  A    between atoms: _217  and  _218
REMARK   94  A    between atoms: _223  and  _225
REMARK   95  A    between atoms: _225  and  _226
REMARK   96  A    between atoms: _225  and  _228
REMARK   97  A    between atoms: _231  and  _233
REMARK   98  A    between atoms: _233  and  _234
REMARK   99  A    between atoms: _233  and  _236
REMARK  100  A    between atoms: _236  and  _237
REMARK  101  A    between atoms: _242  and  _244
REMARK  102  A    between atoms: _244  and  _245
REMARK  103  A    between atoms: _244  and  _247
REMARK  104  A    between atoms: _247  and  _248
REMARK  105  A    between atoms: _251  and  _253
REMARK  106  A    between atoms: _253  and  _254
REMARK  107  A    between atoms: _253  and  _256
REMARK  108  A    between atoms: _256  and  _257
REMARK  109  A    between atoms: _260  and  _262
REMARK  110  A    between atoms: _262  and  _263
REMARK  111  A    between atoms: _265  and  _267
REMARK  112  A    between atoms: _267  and  _268
REMARK  113  A    between atoms: _267  and  _270
REMARK  114  A    between atoms: _270  and  _271
REMARK  115  A    between atoms: _271  and  _272
REMARK  116  A    between atoms: _272  and  _273
REMARK  117  A    between atoms: _282  and  _284
REMARK  118  A    between atoms: _284  and  _285
REMARK  119  A    between atoms: _284  and  _287
REMARK  120  A    between atoms: _287  and  _288
REMARK  121  A    between atoms: _293  and  _295
REMARK  122  A    between atoms: _295  and  _296
REMARK  123  A    between atoms: _295  and  _298
REMARK  124  A    between atoms: _298  and  _299
REMARK  125  A    between atoms: _299  and  _300
REMARK  126  A    between atoms: _300  and  _301
REMARK  127  A    between atoms: _310  and  _312
REMARK  128  A    between atoms: _312  and  _313
REMARK  129  A    between atoms: _312  and  _315
REMARK  130  A    between atoms: _315  and  _316
REMARK  131  A    between atoms: _319  and  _321
REMARK  132  A    between atoms: _321  and  _322
REMARK  133  A    between atoms: _321  and  _324
REMARK  134  A    between atoms: _324  and  _325
REMARK  135  A    between atoms: _328  and  _330
REMARK  136  A    between atoms: _330  and  _331
REMARK  137  A    between atoms: _330  and  _333
REMARK  138  A    between atoms: _333  and  _334
REMARK  139  A    between atoms: _337  and  _339
REMARK  140  A    between atoms: _339  and  _340
REMARK  141  A    between atoms: _339  and  _342
REMARK  142  A    between atoms: _342  and  _343
REMARK  143  A    between atoms: _346  and  _348
REMARK  144  A    between atoms: _348  and  _349
REMARK  145  A    between atoms: _348  and  _351
REMARK  146  A    between atoms: _351  and  _352
REMARK  147  A    between atoms: _355  and  _357
REMARK  148  A    between atoms: _357  and  _358
REMARK  149  A    between atoms: _360  and  _362
REMARK  150  A    between atoms: _362  and  _363
REMARK  151  A    between atoms: _366  and  _368
REMARK  152  A    between atoms: _368  and  _369
REMARK  153  A    between atoms: _368  and  _371
REMARK  154  A    between atoms: _371  and  _372
REMARK  155  A    between atoms: _375  and  _377
REMARK  156  A    between atoms: _377  and  _378
REMARK  157  A    between atoms: _377  and  _380
REMARK  158  A    between atoms: _380  and  _381
REMARK  159  A    between atoms: _384  and  _386
REMARK  160  A    between atoms: _386  and  _387
REMARK  161  A    between atoms: _386  and  _389
REMARK  162  A    between atoms: _389  and  _390
REMARK  163  A    between atoms: _393  and  _395
REMARK  164  A    between atoms: _395  and  _396
REMARK  165  A    between atoms: _395  and  _398
REMARK  166  A    between atoms: _401  and  _403
REMARK  167  A    between atoms: _403  and  _404
REMARK  168  A    between atoms: _403  and  _406
REMARK  169  A    between atoms: _406  and  _407
REMARK  170  A    between atoms: _407  and  _408
REMARK  171  A    between atoms: _408  and  _409
REMARK  172  A    between atoms: _409  and  _410
REMARK  173  A    between atoms: _414  and  _416
REMARK  174  A    between atoms: _416  and  _417
REMARK  175  A    between atoms: _416  and  _419
REMARK  176  A    between atoms: _419  and  _420
REMARK  177  A    between atoms: _420  and  _421
REMARK  178  A    between atoms: _423  and  _425
REMARK  179  A    between atoms: _425  and  _426
REMARK  180  A    between atoms: _425  and  _428
REMARK  181  A    between atoms: _428  and  _429
REMARK  182  A    between atoms: _432  and  _434
REMARK  183  A    between atoms: _434  and  _435
REMARK  184  A    between atoms: _437  and  _439
REMARK  185  A    between atoms: _439  and  _440
REMARK  186  A    between atoms: _442  and  _444
REMARK  187  A    between atoms: _444  and  _445
REMARK  188  A    between atoms: _444  and  _447
REMARK  189  A    between atoms: _447  and  _448
REMARK  190  A    between atoms: _451  and  _453
REMARK  191  A    between atoms: _453  and  _454
REMARK  192  A    between atoms: _456  and  _458
REMARK  193  A    between atoms: _458  and  _459
REMARK  194  A    between atoms: _461  and  _463
REMARK  195  A    between atoms: _463  and  _464
REMARK  196  A    between atoms: _463  and  _466
REMARK  197  A    between atoms: _466  and  _467
REMARK  198  A    between atoms: _473  and  _475
REMARK  199  A    between atoms: _475  and  _476
REMARK  200  A    between atoms: _475  and  _478
REMARK  201  A    between atoms: _478  and  _479
REMARK  202  A    between atoms: _482  and  _484
REMARK  203  A    between atoms: _484  and  _485
REMARK  204  A    between atoms: _484  and  _487
REMARK  205  A    between atoms: _490  and  _492
REMARK  206  A    between atoms: _492  and  _493
REMARK  207  A    between atoms: _492  and  _495
REMARK  208  A    between atoms: _495  and  _496
REMARK  209  A    between atoms: _499  and  _501
REMARK  210  A    between atoms: _501  and  _502
REMARK  211  A    between atoms: _501  and  _504
REMARK  212  A    between atoms: _504  and  _505
REMARK  213  A    between atoms: _509  and  _510
REMARK  214  A    between atoms: _515  and  _517
REMARK  215  A    between atoms: _517  and  _518
REMARK  216  A    between atoms: _517  and  _520
REMARK  217  A    between atoms: _523  and  _525
REMARK  218  A    between atoms: _525  and  _526
REMARK  219  A    between atoms: _525  and  _528
REMARK  220  A    between atoms: _528  and  _529
REMARK  221  A    between atoms: _534  and  _536
REMARK  222  A    between atoms: _536  and  _537
REMARK  223  A    between atoms: _536  and  _539
REMARK  224  A    between atoms: _539  and  _540
REMARK  225  A    between atoms: _543  and  _545
REMARK  226  A    between atoms: _545  and  _546
REMARK  227  A    between atoms: _545  and  _548
REMARK  228  A    between atoms: _548  and  _549
REMARK  229  A    between atoms: _552  and  _554
REMARK  230  A    between atoms: _554  and  _555
REMARK  231  A    between atoms: _557  and  _559
REMARK  232  A    between atoms: _559  and  _560
REMARK  233  A    between atoms: _559  and  _562
REMARK  234  A    between atoms: _562  and  _563
REMARK  235  A    between atoms: _563  and  _564
REMARK  236  A    between atoms: _564  and  _565
REMARK  237  A    between atoms: _574  and  _576
REMARK  238  A    between atoms: _576  and  _577
REMARK  239  A    between atoms: _576  and  _579
REMARK  240  A    between atoms: _579  and  _580
REMARK                            x       y       z     vdW  Elec       q    Type
REMARK                         _______ _______ _______ _____ _____    ______ ____
ROOT
ATOM      1  O   HOH     1      27.184  33.532  14.450  0.00  0.00    +0.000 OA
ENDROOT
TORSDOF 0
REMARK  Name = ../refined-set-2016/3kdc/3kdc_pocket.pdb
REMARK  240 active torsions:
REMARK  status: ('A' for Active; 'I' for Inactive)
REMARK    1  A    between atoms: _1  and  _3
REMARK    2  A    between atoms: _3  and  _4
REMARK    3  A    between atoms: _3  and  _6
REMARK    4  A    between atoms: _6  and  _7
REMARK    5  A    between atoms: _7  and  _8
REMARK    6  A    between atoms: _8  and  _9
REMARK    7  A    between atoms: _18  and  _20
REMARK    8  A    between atoms: _20  and  _21
REMARK    9  A    between atoms: _20  and  _23
REMARK   10  A    between atoms: _23  and  _24
REMARK   11  A    between atoms: _27  and  _29
REMARK   12  A    between atoms: _29  and  _30
REMARK   13  A    between atoms: _29  and  _32
REMARK   14  A    between atoms: _32  and  _33
REMARK   15  A    between atoms: _36  and  _38
REMARK   16  A    between atoms: _38  and  _39
REMARK   17  A    between atoms: _38  and  _41
REMARK   18  A    between atoms: _41  and  _42
REMARK   19  A    between atoms: _45  and  _47
REMARK   20  A    between atoms: _47  and  _48
REMARK   21  A    between atoms: _47  and  _50
REMARK   22  A    between atoms: _50  and  _51
REMARK   23  A    between atoms: _54  and  _56
REMARK   24  A    between atoms: _56  and  _57
REMARK   25  A    between atoms: _59  and  _61
REMARK   26  A    between atoms: _61  and  _62
REMARK   27  A    between atoms: _65  and  _67
REMARK   28  A    between atoms: _67  and  _68
REMARK   29  A    between atoms: _67  and  _70
REMARK   30  A    between atoms: _70  and  _71
REMARK   31  A    between atoms: _74  and  _76
REMARK   32  A    between atoms: _76  and  _77
REMARK   33  A    between atoms: _76  and  _79
REMARK   34  A    between atoms: _79  and  _80
REMARK   35  A    between atoms: _83  and  _85
REMARK   36  A    between atoms: _85  and  _86
REMARK   37  A    between atoms: _85  and  _88
REMARK   38  A    between atoms: _88  and  _89
REMARK   39  A    between atoms: _92  and  _94
REMARK   40  A    between atoms: _94  and  _95
REMARK   41  A    between atoms: _94  and  _97
REMARK   42  A    between atoms: _100  and  _102
REMARK   43  A    between atoms: _102  and  _103
REMARK   44  A    between atoms: _102  and  _105
REMARK   45  A    between atoms: _105  and  _106
REMARK   46  A    between atoms: _109  and  _111
REMARK   47  A    between atoms: _111  and  _112
REMARK   48  A    between atoms: _111  and  _114
REMARK   49  A    between atoms: _114  and  _115
REMARK   50  A    between atoms: _115  and  _116
REMARK   51  A    between atoms: _116  and  _117
REMARK   52  A    between atoms: _117  and  _118
REMARK   53  A    between atoms: _122  and  _124
REMARK   54  A    between atoms: _124  and  _125
REMARK   55  A    between atoms: _124  and  _127
REMARK   56  A    between atoms: _127  and  _128
REMARK   57  A    between atoms: _128  and  _129
REMARK   58  A    between atoms: _131  and  _133
REMARK   59  A    between atoms: _133  and  _134
REMARK   60  A    between atoms: _133  and  _136
REMARK   61  A    between atoms: _136  and  _137
REMARK   62  A    between atoms: _140  and  _142
REMARK   63  A    between atoms: _142  and  _143
REMARK   64  A    between atoms: _145  and  _147
REMARK   65  A    between atoms: _147  and  _148
REMARK   66  A    between atoms: _150  and  _152
REMARK   67  A    between atoms: _152  and  _153
REMARK   68  A    between atoms: _152  and  _155
REMARK   69  A    between atoms: _155  and  _156
REMARK   70  A    between atoms: _159  and  _161
REMARK   71  A    between atoms: _161  and  _162
REMARK   72  A    between atoms: _164  and  _166
REMARK   73  A    between atoms: _166  and  _167
REMARK   74  A    between atoms: _169  and  _171
REMARK   75  A    between atoms: _171  and  _172
REMARK   76  A    between atoms: _171  and  _174
REMARK   77  A    between atoms: _174  and  _175
REMARK   78  A    between atoms: _181  and  _183
REMARK   79  A    between atoms: _183  and  _184
REMARK   80  A    between atoms: _183  and  _186
REMARK   81  A    between atoms: _186  and  _187
REMARK   82  A    between atoms: _190  and  _192
REMARK   83  A    between atoms: _192  and  _193
REMARK   84  A    between atoms: _192  and  _195
REMARK   85  A    between atoms: _198  and  _200
REMARK   86  A    between atoms: _200  and  _201
REMARK   87  A    between atoms: _200  and  _203
REMARK   88  A    between atoms: _203  and  _204
REMARK   89  A    between atoms: _207  and  _209
REMARK   90  A    between atoms: _209  and  _210
REMARK   91  A    between atoms: _209  and  _212
REMARK   92  A    between atoms: _212  and  _213
REMARK   93  A    between atoms: _217  and  _218
REMARK   94  A    between atoms: _223  and  _225
REMARK   95  A    between atoms: _225  and  _226
REMARK   96  A    between atoms: _225  and  _228
REMARK   97  A    between atoms: _231  and  _233
REMARK   98  A    between atoms: _233  and  _234
REMARK   99  A    between atoms: _233  and  _236
REMARK  100  A    between atoms: _236  and  _237
REMARK  101  A    between atoms: _242  and  _244
REMARK  102  A    between atoms: _244  and  _245
REMARK  103  A    between atoms: _244  and  _247
REMARK  104  A    between atoms: _247  and  _248
REMARK  105  A    between atoms: _251  and  _253
REMARK  106  A    between atoms: _253  and  _254
REMARK  107  A    between atoms: _253  and  _256
REMARK  108  A    between atoms: _256  and  _257
REMARK  109  A    between atoms: _260  and  _262
REMARK  110  A    between atoms: _262  and  _263
REMARK  111  A    between atoms: _265  and  _267
REMARK  112  A    between atoms: _267  and  _268
REMARK  113  A    between atoms: _267  and  _270
REMARK  114  A    between atoms: _270  and  _271
REMARK  115  A    between atoms: _271  and  _272
REMARK  116  A    between atoms: _272  and  _273
REMARK  117  A    between atoms: _282  and  _284
REMARK  118  A    between atoms: _284  and  _285
REMARK  119  A    between atoms: _284  and  _287
REMARK  120  A    between atoms: _287  and  _288
REMARK  121  A    between atoms: _293  and  _295
REMARK  122  A    between atoms: _295  and  _296
REMARK  123  A    between atoms: _295  and  _298
REMARK  124  A    between atoms: _298  and  _299
REMARK  125  A    between atoms: _299  and  _300
REMARK  126  A    between atoms: _300  and  _301
REMARK  127  A    between atoms: _310  and  _312
REMARK  128  A    between atoms: _312  and  _313
REMARK  129  A    between atoms: _312  and  _315
REMARK  130  A    between atoms: _315  and  _316
REMARK  131  A    between atoms: _319  and  _321
REMARK  132  A    between atoms: _321  and  _322
REMARK  133  A    between atoms: _321  and  _324
REMARK  134  A    between atoms: _324  and  _325
REMARK  135  A    between atoms: _328  and  _330
REMARK  136  A    between atoms: _330  and  _331
REMARK  137  A    between atoms: _330  and  _333
REMARK  138  A    between atoms: _333  and  _334
REMARK  139  A    between atoms: _337  and  _339
REMARK  140  A    between atoms: _339  and  _340
REMARK  141  A    between atoms: _339  and  _342
REMARK  142  A    between atoms: _342  and  _343
REMARK  143  A    between atoms: _346  and  _348
REMARK  144  A    between atoms: _348  and  _349
REMARK  145  A    between atoms: _348  and  _351
REMARK  146  A    between atoms: _351  and  _352
REMARK  147  A    between atoms: _355  and  _357
REMARK  148  A    between atoms: _357  and  _358
REMARK  149  A    between atoms: _360  and  _362
REMARK  150  A    between atoms: _362  and  _363
REMARK  151  A    between atoms: _366  and  _368
REMARK  152  A    between atoms: _368  and  _369
REMARK  153  A    between atoms: _368  and  _371
REMARK  154  A    between atoms: _371  and  _372
REMARK  155  A    between atoms: _375  and  _377
REMARK  156  A    between atoms: _377  and  _378
REMARK  157  A    between atoms: _377  and  _380
REMARK  158  A    between atoms: _380  and  _381
REMARK  159  A    between atoms: _384  and  _386
REMARK  160  A    between atoms: _386  and  _387
REMARK  161  A    between atoms: _386  and  _389
REMARK  162  A    between atoms: _389  and  _390
REMARK  163  A    between atoms: _393  and  _395
REMARK  164  A    between atoms: _395  and  _396
REMARK  165  A    between atoms: _395  and  _398
REMARK  166  A    between atoms: _401  and  _403
REMARK  167  A    between atoms: _403  and  _404
REMARK  168  A    between atoms: _403  and  _406
REMARK  169  A    between atoms: _406  and  _407
REMARK  170  A    between atoms: _407  and  _408
REMARK  171  A    between atoms: _408  and  _409
REMARK  172  A    between atoms: _409  and  _410
REMARK  173  A    between atoms: _414  and  _416
REMARK  174  A    between atoms: _416  and  _417
REMARK  175  A    between atoms: _416  and  _419
REMARK  176  A    between atoms: _419  and  _420
REMARK  177  A    between atoms: _420  and  _421
REMARK  178  A    between atoms: _423  and  _425
REMARK  179  A    between atoms: _425  and  _426
REMARK  180  A    between atoms: _425  and  _428
REMARK  181  A    between atoms: _428  and  _429
REMARK  182  A    between atoms: _432  and  _434
REMARK  183  A    between atoms: _434  and  _435
REMARK  184  A    between atoms: _437  and  _439
REMARK  185  A    between atoms: _439  and  _440
REMARK  186  A    between atoms: _442  and  _444
REMARK  187  A    between atoms: _444  and  _445
REMARK  188  A    between atoms: _444  and  _447
REMARK  189  A    between atoms: _447  and  _448
REMARK  190  A    between atoms: _451  and  _453
REMARK  191  A    between atoms: _453  and  _454
REMARK  192  A    between atoms: _456  and  _458
REMARK  193  A    between atoms: _458  and  _459
REMARK  194  A    between atoms: _461  and  _463
REMARK  195  A    between atoms: _463  and  _464
REMARK  196  A    between atoms: _463  and  _466
REMARK  197  A    between atoms: _466  and  _467
REMARK  198  A    between atoms: _473  and  _475
REMARK  199  A    between atoms: _475  and  _476
REMARK  200  A    between atoms: _475  and  _478
REMARK  201  A    between atoms: _478  and  _479
REMARK  202  A    between atoms: _482  and  _484
REMARK  203  A    between atoms: _484  and  _485
REMARK  204  A    between atoms: _484  and  _487
REMARK  205  A    between atoms: _490  and  _492
REMARK  206  A    between atoms: _492  and  _493
REMARK  207  A    between atoms: _492  and  _495
REMARK  208  A    between atoms: _495  and  _496
REMARK  209  A    between atoms: _499  and  _501
REMARK  210  A    between atoms: _501  and  _502
REMARK  211  A    between atoms: _501  and  _504
REMARK  212  A    between atoms: _504  and  _505
REMARK  213  A    between atoms: _509  and  _510
REMARK  214  A    between atoms: _515  and  _517
REMARK  215  A    between atoms: _517  and  _518
REMARK  216  A    between atoms: _517  and  _520
REMARK  217  A    between atoms: _523  and  _525
REMARK  218  A    between atoms: _525  and  _526
REMARK  219  A    between atoms: _525  and  _528
REMARK  220  A    between atoms: _528  and  _529
REMARK  221  A    between atoms: _534  and  _536
REMARK  222  A    between atoms: _536  and  _537
REMARK  223  A    between atoms: _536  and  _539
REMARK  224  A    between atoms: _539  and  _540
REMARK  225  A    between atoms: _543  and  _545
REMARK  226  A    between atoms: _545  and  _546
REMARK  227  A    between atoms: _545  and  _548
REMARK  228  A    between atoms: _548  and  _549
REMARK  229  A    between atoms: _552  and  _554
REMARK  230  A    between atoms: _554  and  _555
REMARK  231  A    between atoms: _557  and  _559
REMARK  232  A    between atoms: _559  and  _560
REMARK  233  A    between atoms: _559  and  _562
REMARK  234  A    between atoms: _562  and  _563
REMARK  235  A    between atoms: _563  and  _564
REMARK  236  A    between atoms: _564  and  _565
REMARK  237  A    between atoms: _574  and  _576
REMARK  238  A    between atoms: _576  and  _577
REMARK  239  A    between atoms: _576  and  _579
REMARK  240  A    between atoms: _579  and  _580
REMARK                            x       y       z     vdW  Elec       q    Type
REMARK                         _______ _______ _______ _____ _____    ______ ____
ROOT
ATOM      1  O   HOH     1       7.428  23.802  18.204  0.00  0.00    +0.000 OA
ENDROOT
TORSDOF 0
REMARK  Name = ../refined-set-2016/3kdc/3kdc_pocket.pdb
REMARK  240 active torsions:
REMARK  status: ('A' for Active; 'I' for Inactive)
REMARK    1  A    between atoms: _1  and  _3
REMARK    2  A    between atoms: _3  and  _4
REMARK    3  A    between atoms: _3  and  _6
REMARK    4  A    between atoms: _6  and  _7
REMARK    5  A    between atoms: _7  and  _8
REMARK    6  A    between atoms: _8  and  _9
REMARK    7  A    between atoms: _18  and  _20
REMARK    8  A    between atoms: _20  and  _21
REMARK    9  A    between atoms: _20  and  _23
REMARK   10  A    between atoms: _23  and  _24
REMARK   11  A    between atoms: _27  and  _29
REMARK   12  A    between atoms: _29  and  _30
REMARK   13  A    between atoms: _29  and  _32
REMARK   14  A    between atoms: _32  and  _33
REMARK   15  A    between atoms: _36  and  _38
REMARK   16  A    between atoms: _38  and  _39
REMARK   17  A    between atoms: _38  and  _41
REMARK   18  A    between atoms: _41  and  _42
REMARK   19  A    between atoms: _45  and  _47
REMARK   20  A    between atoms: _47  and  _48
REMARK   21  A    between atoms: _47  and  _50
REMARK   22  A    between atoms: _50  and  _51
REMARK   23  A    between atoms: _54  and  _56
REMARK   24  A    between atoms: _56  and  _57
REMARK   25  A    between atoms: _59  and  _61
REMARK   26  A    between atoms: _61  and  _62
REMARK   27  A    between atoms: _65  and  _67
REMARK   28  A    between atoms: _67  and  _68
REMARK   29  A    between atoms: _67  and  _70
REMARK   30  A    between atoms: _70  and  _71
REMARK   31  A    between atoms: _74  and  _76
REMARK   32  A    between atoms: _76  and  _77
REMARK   33  A    between atoms: _76  and  _79
REMARK   34  A    between atoms: _79  and  _80
REMARK   35  A    between atoms: _83  and  _85
REMARK   36  A    between atoms: _85  and  _86
REMARK   37  A    between atoms: _85  and  _88
REMARK   38  A    between atoms: _88  and  _89
REMARK   39  A    between atoms: _92  and  _94
REMARK   40  A    between atoms: _94  and  _95
REMARK   41  A    between atoms: _94  and  _97
REMARK   42  A    between atoms: _100  and  _102
REMARK   43  A    between atoms: _102  and  _103
REMARK   44  A    between atoms: _102  and  _105
REMARK   45  A    between atoms: _105  and  _106
REMARK   46  A    between atoms: _109  and  _111
REMARK   47  A    between atoms: _111  and  _112
REMARK   48  A    between atoms: _111  and  _114
REMARK   49  A    between atoms: _114  and  _115
REMARK   50  A    between atoms: _115  and  _116
REMARK   51  A    between atoms: _116  and  _117
REMARK   52  A    between atoms: _117  and  _118
REMARK   53  A    between atoms: _122  and  _124
REMARK   54  A    between atoms: _124  and  _125
REMARK   55  A    between atoms: _124  and  _127
REMARK   56  A    between atoms: _127  and  _128
REMARK   57  A    between atoms: _128  and  _129
REMARK   58  A    between atoms: _131  and  _133
REMARK   59  A    between atoms: _133  and  _134
REMARK   60  A    between atoms: _133  and  _136
REMARK   61  A    between atoms: _136  and  _137
REMARK   62  A    between atoms: _140  and  _142
REMARK   63  A    between atoms: _142  and  _143
REMARK   64  A    between atoms: _145  and  _147
REMARK   65  A    between atoms: _147  and  _148
REMARK   66  A    between atoms: _150  and  _152
REMARK   67  A    between atoms: _152  and  _153
REMARK   68  A    between atoms: _152  and  _155
REMARK   69  A    between atoms: _155  and  _156
REMARK   70  A    between atoms: _159  and  _161
REMARK   71  A    between atoms: _161  and  _162
REMARK   72  A    between atoms: _164  and  _166
REMARK   73  A    between atoms: _166  and  _167
REMARK   74  A    between atoms: _169  and  _171
REMARK   75  A    between atoms: _171  and  _172
REMARK   76  A    between atoms: _171  and  _174
REMARK   77  A    between atoms: _174  and  _175
REMARK   78  A    between atoms: _181  and  _183
REMARK   79  A    between atoms: _183  and  _184
REMARK   80  A    between atoms: _183  and  _186
REMARK   81  A    between atoms: _186  and  _187
REMARK   82  A    between atoms: _190  and  _192
REMARK   83  A    between atoms: _192  and  _193
REMARK   84  A    between atoms: _192  and  _195
REMARK   85  A    between atoms: _198  and  _200
REMARK   86  A    between atoms: _200  and  _201
REMARK   87  A    between atoms: _200  and  _203
REMARK   88  A    between atoms: _203  and  _204
REMARK   89  A    between atoms: _207  and  _209
REMARK   90  A    between atoms: _209  and  _210
REMARK   91  A    between atoms: _209  and  _212
REMARK   92  A    between atoms: _212  and  _213
REMARK   93  A    between atoms: _217  and  _218
REMARK   94  A    between atoms: _223  and  _225
REMARK   95  A    between atoms: _225  and  _226
REMARK   96  A    between atoms: _225  and  _228
REMARK   97  A    between atoms: _231  and  _233
REMARK   98  A    between atoms: _233  and  _234
REMARK   99  A    between atoms: _233  and  _236
REMARK  100  A    between atoms: _236  and  _237
REMARK  101  A    between atoms: _242  and  _244
REMARK  102  A    between atoms: _244  and  _245
REMARK  103  A    between atoms: _244  and  _247
REMARK  104  A    between atoms: _247  and  _248
REMARK  105  A    between atoms: _251  and  _253
REMARK  106  A    between atoms: _253  and  _254
REMARK  107  A    between atoms: _253  and  _256
REMARK  108  A    between atoms: _256  and  _257
REMARK  109  A    between atoms: _260  and  _262
REMARK  110  A    between atoms: _262  and  _263
REMARK  111  A    between atoms: _265  and  _267
REMARK  112  A    between atoms: _267  and  _268
REMARK  113  A    between atoms: _267  and  _270
REMARK  114  A    between atoms: _270  and  _271
REMARK  115  A    between atoms: _271  and  _272
REMARK  116  A    between atoms: _272  and  _273
REMARK  117  A    between atoms: _282  and  _284
REMARK  118  A    between atoms: _284  and  _285
REMARK  119  A    between atoms: _284  and  _287
REMARK  120  A    between atoms: _287  and  _288
REMARK  121  A    between atoms: _293  and  _295
REMARK  122  A    between atoms: _295  and  _296
REMARK  123  A    between atoms: _295  and  _298
REMARK  124  A    between atoms: _298  and  _299
REMARK  125  A    between atoms: _299  and  _300
REMARK  126  A    between atoms: _300  and  _301
REMARK  127  A    between atoms: _310  and  _312
REMARK  128  A    between atoms: _312  and  _313
REMARK  129  A    between atoms: _312  and  _315
REMARK  130  A    between atoms: _315  and  _316
REMARK  131  A    between atoms: _319  and  _321
REMARK  132  A    between atoms: _321  and  _322
REMARK  133  A    between atoms: _321  and  _324
REMARK  134  A    between atoms: _324  and  _325
REMARK  135  A    between atoms: _328  and  _330
REMARK  136  A    between atoms: _330  and  _331
REMARK  137  A    between atoms: _330  and  _333
REMARK  138  A    between atoms: _333  and  _334
REMARK  139  A    between atoms: _337  and  _339
REMARK  140  A    between atoms: _339  and  _340
REMARK  141  A    between atoms: _339  and  _342
REMARK  142  A    between atoms: _342  and  _343
REMARK  143  A    between atoms: _346  and  _348
REMARK  144  A    between atoms: _348  and  _349
REMARK  145  A    between atoms: _348  and  _351
REMARK  146  A    between atoms: _351  and  _352
REMARK  147  A    between atoms: _355  and  _357
REMARK  148  A    between atoms: _357  and  _358
REMARK  149  A    between atoms: _360  and  _362
REMARK  150  A    between atoms: _362  and  _363
REMARK  151  A    between atoms: _366  and  _368
REMARK  152  A    between atoms: _368  and  _369
REMARK  153  A    between atoms: _368  and  _371
REMARK  154  A    between atoms: _371  and  _372
REMARK  155  A    between atoms: _375  and  _377
REMARK  156  A    between atoms: _377  and  _378
REMARK  157  A    between atoms: _377  and  _380
REMARK  158  A    between atoms: _380  and  _381
REMARK  159  A    between atoms: _384  and  _386
REMARK  160  A    between atoms: _386  and  _387
REMARK  161  A    between atoms: _386  and  _389
REMARK  162  A    between atoms: _389  and  _390
REMARK  163  A    between atoms: _393  and  _395
REMARK  164  A    between atoms: _395  and  _396
REMARK  165  A    between atoms: _395  and  _398
REMARK  166  A    between atoms: _401  and  _403
REMARK  167  A    between atoms: _403  and  _404
REMARK  168  A    between atoms: _403  and  _406
REMARK  169  A    between atoms: _406  and  _407
REMARK  170  A    between atoms: _407  and  _408
REMARK  171  A    between atoms: _408  and  _409
REMARK  172  A    between atoms: _409  and  _410
REMARK  173  A    between atoms: _414  and  _416
REMARK  174  A    between atoms: _416  and  _417
REMARK  175  A    between atoms: _416  and  _419
REMARK  176  A    between atoms: _419  and  _420
REMARK  177  A    between atoms: _420  and  _421
REMARK  178  A    between atoms: _423  and  _425
REMARK  179  A    between atoms: _425  and  _426
REMARK  180  A    between atoms: _425  and  _428
REMARK  181  A    between atoms: _428  and  _429
REMARK  182  A    between atoms: _432  and  _434
REMARK  183  A    between atoms: _434  and  _435
REMARK  184  A    between atoms: _437  and  _439
REMARK  185  A    between atoms: _439  and  _440
REMARK  186  A    between atoms: _442  and  _444
REMARK  187  A    between atoms: _444  and  _445
REMARK  188  A    between atoms: _444  and  _447
REMARK  189  A    between atoms: _447  and  _448
REMARK  190  A    between atoms: _451  and  _453
REMARK  191  A    between atoms: _453  and  _454
REMARK  192  A    between atoms: _456  and  _458
REMARK  193  A    between atoms: _458  and  _459
REMARK  194  A    between atoms: _461  and  _463
REMARK  195  A    between atoms: _463  and  _464
REMARK  196  A    between atoms: _463  and  _466
REMARK  197  A    between atoms: _466  and  _467
REMARK  198  A    between atoms: _473  and  _475
REMARK  199  A    between atoms: _475  and  _476
REMARK  200  A    between atoms: _475  and  _478
REMARK  201  A    between atoms: _478  and  _479
REMARK  202  A    between atoms: _482  and  _484
REMARK  203  A    between atoms: _484  and  _485
REMARK  204  A    between atoms: _484  and  _487
REMARK  205  A    between atoms: _490  and  _492
REMARK  206  A    between atoms: _492  and  _493
REMARK  207  A    between atoms: _492  and  _495
REMARK  208  A    between atoms: _495  and  _496
REMARK  209  A    between atoms: _499  and  _501
REMARK  210  A    between atoms: _501  and  _502
REMARK  211  A    between atoms: _501  and  _504
REMARK  212  A    between atoms: _504  and  _505
REMARK  213  A    between atoms: _509  and  _510
REMARK  214  A    between atoms: _515  and  _517
REMARK  215  A    between atoms: _517  and  _518
REMARK  216  A    between atoms: _517  and  _520
REMARK  217  A    between atoms: _523  and  _525
REMARK  218  A    between atoms: _525  and  _526
REMARK  219  A    between atoms: _525  and  _528
REMARK  220  A    between atoms: _528  and  _529
REMARK  221  A    between atoms: _534  and  _536
REMARK  222  A    between atoms: _536  and  _537
REMARK  223  A    between atoms: _536  and  _539
REMARK  224  A    between atoms: _539  and  _540
REMARK  225  A    between atoms: _543  and  _545
REMARK  226  A    between atoms: _545  and  _546
REMARK  227  A    between atoms: _545  and  _548
REMARK  228  A    between atoms: _548  and  _549
REMARK  229  A    between atoms: _552  and  _554
REMARK  230  A    between atoms: _554  and  _555
REMARK  231  A    between atoms: _557  and  _559
REMARK  232  A    between atoms: _559  and  _560
REMARK  233  A    between atoms: _559  and  _562
REMARK  234  A    between atoms: _562  and  _563
REMARK  235  A    between atoms: _563  and  _564
REMARK  236  A    between atoms: _564  and  _565
REMARK  237  A    between atoms: _574  and  _576
REMARK  238  A    between atoms: _576  and  _577
REMARK  239  A    between atoms: _576  and  _579
REMARK  240  A    between atoms: _579  and  _580
REMARK                            x       y       z     vdW  Elec       q    Type
REMARK                         _______ _______ _______ _____ _____    ______ ____
ROOT
ATOM      1  O   HOH     1       9.054  16.129  27.052  0.00  0.00    +0.000 OA
ENDROOT
TORSDOF 0
REMARK  Name = ../refined-set-2016/3kdc/3kdc_pocket.pdb
REMARK  240 active torsions:
REMARK  status: ('A' for Active; 'I' for Inactive)
REMARK    1  A    between atoms: _1  and  _3
REMARK    2  A    between atoms: _3  and  _4
REMARK    3  A    between atoms: _3  and  _6
REMARK    4  A    between atoms: _6  and  _7
REMARK    5  A    between atoms: _7  and  _8
REMARK    6  A    between atoms: _8  and  _9
REMARK    7  A    between atoms: _18  and  _20
REMARK    8  A    between atoms: _20  and  _21
REMARK    9  A    between atoms: _20  and  _23
REMARK   10  A    between atoms: _23  and  _24
REMARK   11  A    between atoms: _27  and  _29
REMARK   12  A    between atoms: _29  and  _30
REMARK   13  A    between atoms: _29  and  _32
REMARK   14  A    between atoms: _32  and  _33
REMARK   15  A    between atoms: _36  and  _38
REMARK   16  A    between atoms: _38  and  _39
REMARK   17  A    between atoms: _38  and  _41
REMARK   18  A    between atoms: _41  and  _42
REMARK   19  A    between atoms: _45  and  _47
REMARK   20  A    between atoms: _47  and  _48
REMARK   21  A    between atoms: _47  and  _50
REMARK   22  A    between atoms: _50  and  _51
REMARK   23  A    between atoms: _54  and  _56
REMARK   24  A    between atoms: _56  and  _57
REMARK   25  A    between atoms: _59  and  _61
REMARK   26  A    between atoms: _61  and  _62
REMARK   27  A    between atoms: _65  and  _67
REMARK   28  A    between atoms: _67  and  _68
REMARK   29  A    between atoms: _67  and  _70
REMARK   30  A    between atoms: _70  and  _71
REMARK   31  A    between atoms: _74  and  _76
REMARK   32  A    between atoms: _76  and  _77
REMARK   33  A    between atoms: _76  and  _79
REMARK   34  A    between atoms: _79  and  _80
REMARK   35  A    between atoms: _83  and  _85
REMARK   36  A    between atoms: _85  and  _86
REMARK   37  A    between atoms: _85  and  _88
REMARK   38  A    between atoms: _88  and  _89
REMARK   39  A    between atoms: _92  and  _94
REMARK   40  A    between atoms: _94  and  _95
REMARK   41  A    between atoms: _94  and  _97
REMARK   42  A    between atoms: _100  and  _102
REMARK   43  A    between atoms: _102  and  _103
REMARK   44  A    between atoms: _102  and  _105
REMARK   45  A    between atoms: _105  and  _106
REMARK   46  A    between atoms: _109  and  _111
REMARK   47  A    between atoms: _111  and  _112
REMARK   48  A    between atoms: _111  and  _114
REMARK   49  A    between atoms: _114  and  _115
REMARK   50  A    between atoms: _115  and  _116
REMARK   51  A    between atoms: _116  and  _117
REMARK   52  A    between atoms: _117  and  _118
REMARK   53  A    between atoms: _122  and  _124
REMARK   54  A    between atoms: _124  and  _125
REMARK   55  A    between atoms: _124  and  _127
REMARK   56  A    between atoms: _127  and  _128
REMARK   57  A    between atoms: _128  and  _129
REMARK   58  A    between atoms: _131  and  _133
REMARK   59  A    between atoms: _133  and  _134
REMARK   60  A    between atoms: _133  and  _136
REMARK   61  A    between atoms: _136  and  _137
REMARK   62  A    between atoms: _140  and  _142
REMARK   63  A    between atoms: _142  and  _143
REMARK   64  A    between atoms: _145  and  _147
REMARK   65  A    between atoms: _147  and  _148
REMARK   66  A    between atoms: _150  and  _152
REMARK   67  A    between atoms: _152  and  _153
REMARK   68  A    between atoms: _152  and  _155
REMARK   69  A    between atoms: _155  and  _156
REMARK   70  A    between atoms: _159  and  _161
REMARK   71  A    between atoms: _161  and  _162
REMARK   72  A    between atoms: _164  and  _166
REMARK   73  A    between atoms: _166  and  _167
REMARK   74  A    between atoms: _169  and  _171
REMARK   75  A    between atoms: _171  and  _172
REMARK   76  A    between atoms: _171  and  _174
REMARK   77  A    between atoms: _174  and  _175
REMARK   78  A    between atoms: _181  and  _183
REMARK   79  A    between atoms: _183  and  _184
REMARK   80  A    between atoms: _183  and  _186
REMARK   81  A    between atoms: _186  and  _187
REMARK   82  A    between atoms: _190  and  _192
REMARK   83  A    between atoms: _192  and  _193
REMARK   84  A    between atoms: _192  and  _195
REMARK   85  A    between atoms: _198  and  _200
REMARK   86  A    between atoms: _200  and  _201
REMARK   87  A    between atoms: _200  and  _203
REMARK   88  A    between atoms: _203  and  _204
REMARK   89  A    between atoms: _207  and  _209
REMARK   90  A    between atoms: _209  and  _210
REMARK   91  A    between atoms: _209  and  _212
REMARK   92  A    between atoms: _212  and  _213
REMARK   93  A    between atoms: _217  and  _218
REMARK   94  A    between atoms: _223  and  _225
REMARK   95  A    between atoms: _225  and  _226
REMARK   96  A    between atoms: _225  and  _228
REMARK   97  A    between atoms: _231  and  _233
REMARK   98  A    between atoms: _233  and  _234
REMARK   99  A    between atoms: _233  and  _236
REMARK  100  A    between atoms: _236  and  _237
REMARK  101  A    between atoms: _242  and  _244
REMARK  102  A    between atoms: _244  and  _245
REMARK  103  A    between atoms: _244  and  _247
REMARK  104  A    between atoms: _247  and  _248
REMARK  105  A    between atoms: _251  and  _253
REMARK  106  A    between atoms: _253  and  _254
REMARK  107  A    between atoms: _253  and  _256
REMARK  108  A    between atoms: _256  and  _257
REMARK  109  A    between atoms: _260  and  _262
REMARK  110  A    between atoms: _262  and  _263
REMARK  111  A    between atoms: _265  and  _267
REMARK  112  A    between atoms: _267  and  _268
REMARK  113  A    between atoms: _267  and  _270
REMARK  114  A    between atoms: _270  and  _271
REMARK  115  A    between atoms: _271  and  _272
REMARK  116  A    between atoms: _272  and  _273
REMARK  117  A    between atoms: _282  and  _284
REMARK  118  A    between atoms: _284  and  _285
REMARK  119  A    between atoms: _284  and  _287
REMARK  120  A    between atoms: _287  and  _288
REMARK  121  A    between atoms: _293  and  _295
REMARK  122  A    between atoms: _295  and  _296
REMARK  123  A    between atoms: _295  and  _298
REMARK  124  A    between atoms: _298  and  _299
REMARK  125  A    between atoms: _299  and  _300
REMARK  126  A    between atoms: _300  and  _301
REMARK  127  A    between atoms: _310  and  _312
REMARK  128  A    between atoms: _312  and  _313
REMARK  129  A    between atoms: _312  and  _315
REMARK  130  A    between atoms: _315  and  _316
REMARK  131  A    between atoms: _319  and  _321
REMARK  132  A    between atoms: _321  and  _322
REMARK  133  A    between atoms: _321  and  _324
REMARK  134  A    between atoms: _324  and  _325
REMARK  135  A    between atoms: _328  and  _330
REMARK  136  A    between atoms: _330  and  _331
REMARK  137  A    between atoms: _330  and  _333
REMARK  138  A    between atoms: _333  and  _334
REMARK  139  A    between atoms: _337  and  _339
REMARK  140  A    between atoms: _339  and  _340
REMARK  141  A    between atoms: _339  and  _342
REMARK  142  A    between atoms: _342  and  _343
REMARK  143  A    between atoms: _346  and  _348
REMARK  144  A    between atoms: _348  and  _349
REMARK  145  A    between atoms: _348  and  _351
REMARK  146  A    between atoms: _351  and  _352
REMARK  147  A    between atoms: _355  and  _357
REMARK  148  A    between atoms: _357  and  _358
REMARK  149  A    between atoms: _360  and  _362
REMARK  150  A    between atoms: _362  and  _363
REMARK  151  A    between atoms: _366  and  _368
REMARK  152  A    between atoms: _368  and  _369
REMARK  153  A    between atoms: _368  and  _371
REMARK  154  A    between atoms: _371  and  _372
REMARK  155  A    between atoms: _375  and  _377
REMARK  156  A    between atoms: _377  and  _378
REMARK  157  A    between atoms: _377  and  _380
REMARK  158  A    between atoms: _380  and  _381
REMARK  159  A    between atoms: _384  and  _386
REMARK  160  A    between atoms: _386  and  _387
REMARK  161  A    between atoms: _386  and  _389
REMARK  162  A    between atoms: _389  and  _390
REMARK  163  A    between atoms: _393  and  _395
REMARK  164  A    between atoms: _395  and  _396
REMARK  165  A    between atoms: _395  and  _398
REMARK  166  A    between atoms: _401  and  _403
REMARK  167  A    between atoms: _403  and  _404
REMARK  168  A    between atoms: _403  and  _406
REMARK  169  A    between atoms: _406  and  _407
REMARK  170  A    between atoms: _407  and  _408
REMARK  171  A    between atoms: _408  and  _409
REMARK  172  A    between atoms: _409  and  _410
REMARK  173  A    between atoms: _414  and  _416
REMARK  174  A    between atoms: _416  and  _417
REMARK  175  A    between atoms: _416  and  _419
REMARK  176  A    between atoms: _419  and  _420
REMARK  177  A    between atoms: _420  and  _421
REMARK  178  A    between atoms: _423  and  _425
REMARK  179  A    between atoms: _425  and  _426
REMARK  180  A    between atoms: _425  and  _428
REMARK  181  A    between atoms: _428  and  _429
REMARK  182  A    between atoms: _432  and  _434
REMARK  183  A    between atoms: _434  and  _435
REMARK  184  A    between atoms: _437  and  _439
REMARK  185  A    between atoms: _439  and  _440
REMARK  186  A    between atoms: _442  and  _444
REMARK  187  A    between atoms: _444  and  _445
REMARK  188  A    between atoms: _444  and  _447
REMARK  189  A    between atoms: _447  and  _448
REMARK  190  A    between atoms: _451  and  _453
REMARK  191  A    between atoms: _453  and  _454
REMARK  192  A    between atoms: _456  and  _458
REMARK  193  A    between atoms: _458  and  _459
REMARK  194  A    between atoms: _461  and  _463
REMARK  195  A    between atoms: _463  and  _464
REMARK  196  A    between atoms: _463  and  _466
REMARK  197  A    between atoms: _466  and  _467
REMARK  198  A    between atoms: _473  and  _475
REMARK  199  A    between atoms: _475  and  _476
REMARK  200  A    between atoms: _475  and  _478
REMARK  201  A    between atoms: _478  and  _479
REMARK  202  A    between atoms: _482  and  _484
REMARK  203  A    between atoms: _484  and  _485
REMARK  204  A    between atoms: _484  and  _487
REMARK  205  A    between atoms: _490  and  _492
REMARK  206  A    between atoms: _492  and  _493
REMARK  207  A    between atoms: _492  and  _495
REMARK  208  A    between atoms: _495  and  _496
REMARK  209  A    between atoms: _499  and  _501
REMARK  210  A    between atoms: _501  and  _502
REMARK  211  A    between atoms: _501  and  _504
REMARK  212  A    between atoms: _504  and  _505
REMARK  213  A    between atoms: _509  and  _510
REMARK  214  A    between atoms: _515  and  _517
REMARK  215  A    between atoms: _517  and  _518
REMARK  216  A    between atoms: _517  and  _520
REMARK  217  A    between atoms: _523  and  _525
REMARK  218  A    between atoms: _525  and  _526
REMARK  219  A    between atoms: _525  and  _528
REMARK  220  A    between atoms: _528  and  _529
REMARK  221  A    between atoms: _534  and  _536
REMARK  222  A    between atoms: _536  and  _537
REMARK  223  A    between atoms: _536  and  _539
REMARK  224  A    between atoms: _539  and  _540
REMARK  225  A    between atoms: _543  and  _545
REMARK  226  A    between atoms: _545  and  _546
REMARK  227  A    between atoms: _545  and  _548
REMARK  228  A    between atoms: _548  and  _549
REMARK  229  A    between atoms: _552  and  _554
REMARK  230  A    between atoms: _554  and  _555
REMARK  231  A    between atoms: _557  and  _559
REMARK  232  A    between atoms: _559  and  _560
REMARK  233  A    between atoms: _559  and  _562
REMARK  234  A    between atoms: _562  and  _563
REMARK  235  A    between atoms: _563  and  _564
REMARK  236  A    between atoms: _564  and  _565
REMARK  237  A    between atoms: _574  and  _576
REMARK  238  A    between atoms: _576  and  _577
REMARK  239  A    between atoms: _576  and  _579
REMARK  240  A    between atoms: _579  and  _580
REMARK                            x       y       z     vdW  Elec       q    Type
REMARK                         _______ _______ _______ _____ _____    ______ ____
ROOT
ATOM      1  O   HOH     1      21.951  26.978  22.685  0.00  0.00    +0.000 OA
ENDROOT
TORSDOF 0
REMARK  Name = ../refined-set-2016/3kdc/3kdc_pocket.pdb
REMARK  240 active torsions:
REMARK  status: ('A' for Active; 'I' for Inactive)
REMARK    1  A    between atoms: _1  and  _3
REMARK    2  A    between atoms: _3  and  _4
REMARK    3  A    between atoms: _3  and  _6
REMARK    4  A    between atoms: _6  and  _7
REMARK    5  A    between atoms: _7  and  _8
REMARK    6  A    between atoms: _8  and  _9
REMARK    7  A    between atoms: _18  and  _20
REMARK    8  A    between atoms: _20  and  _21
REMARK    9  A    between atoms: _20  and  _23
REMARK   10  A    between atoms: _23  and  _24
REMARK   11  A    between atoms: _27  and  _29
REMARK   12  A    between atoms: _29  and  _30
REMARK   13  A    between atoms: _29  and  _32
REMARK   14  A    between atoms: _32  and  _33
REMARK   15  A    between atoms: _36  and  _38
REMARK   16  A    between atoms: _38  and  _39
REMARK   17  A    between atoms: _38  and  _41
REMARK   18  A    between atoms: _41  and  _42
REMARK   19  A    between atoms: _45  and  _47
REMARK   20  A    between atoms: _47  and  _48
REMARK   21  A    between atoms: _47  and  _50
REMARK   22  A    between atoms: _50  and  _51
REMARK   23  A    between atoms: _54  and  _56
REMARK   24  A    between atoms: _56  and  _57
REMARK   25  A    between atoms: _59  and  _61
REMARK   26  A    between atoms: _61  and  _62
REMARK   27  A    between atoms: _65  and  _67
REMARK   28  A    between atoms: _67  and  _68
REMARK   29  A    between atoms: _67  and  _70
REMARK   30  A    between atoms: _70  and  _71
REMARK   31  A    between atoms: _74  and  _76
REMARK   32  A    between atoms: _76  and  _77
REMARK   33  A    between atoms: _76  and  _79
REMARK   34  A    between atoms: _79  and  _80
REMARK   35  A    between atoms: _83  and  _85
REMARK   36  A    between atoms: _85  and  _86
REMARK   37  A    between atoms: _85  and  _88
REMARK   38  A    between atoms: _88  and  _89
REMARK   39  A    between atoms: _92  and  _94
REMARK   40  A    between atoms: _94  and  _95
REMARK   41  A    between atoms: _94  and  _97
REMARK   42  A    between atoms: _100  and  _102
REMARK   43  A    between atoms: _102  and  _103
REMARK   44  A    between atoms: _102  and  _105
REMARK   45  A    between atoms: _105  and  _106
REMARK   46  A    between atoms: _109  and  _111
REMARK   47  A    between atoms: _111  and  _112
REMARK   48  A    between atoms: _111  and  _114
REMARK   49  A    between atoms: _114  and  _115
REMARK   50  A    between atoms: _115  and  _116
REMARK   51  A    between atoms: _116  and  _117
REMARK   52  A    between atoms: _117  and  _118
REMARK   53  A    between atoms: _122  and  _124
REMARK   54  A    between atoms: _124  and  _125
REMARK   55  A    between atoms: _124  and  _127
REMARK   56  A    between atoms: _127  and  _128
REMARK   57  A    between atoms: _128  and  _129
REMARK   58  A    between atoms: _131  and  _133
REMARK   59  A    between atoms: _133  and  _134
REMARK   60  A    between atoms: _133  and  _136
REMARK   61  A    between atoms: _136  and  _137
REMARK   62  A    between atoms: _140  and  _142
REMARK   63  A    between atoms: _142  and  _143
REMARK   64  A    between atoms: _145  and  _147
REMARK   65  A    between atoms: _147  and  _148
REMARK   66  A    between atoms: _150  and  _152
REMARK   67  A    between atoms: _152  and  _153
REMARK   68  A    between atoms: _152  and  _155
REMARK   69  A    between atoms: _155  and  _156
REMARK   70  A    between atoms: _159  and  _161
REMARK   71  A    between atoms: _161  and  _162
REMARK   72  A    between atoms: _164  and  _166
REMARK   73  A    between atoms: _166  and  _167
REMARK   74  A    between atoms: _169  and  _171
REMARK   75  A    between atoms: _171  and  _172
REMARK   76  A    between atoms: _171  and  _174
REMARK   77  A    between atoms: _174  and  _175
REMARK   78  A    between atoms: _181  and  _183
REMARK   79  A    between atoms: _183  and  _184
REMARK   80  A    between atoms: _183  and  _186
REMARK   81  A    between atoms: _186  and  _187
REMARK   82  A    between atoms: _190  and  _192
REMARK   83  A    between atoms: _192  and  _193
REMARK   84  A    between atoms: _192  and  _195
REMARK   85  A    between atoms: _198  and  _200
REMARK   86  A    between atoms: _200  and  _201
REMARK   87  A    between atoms: _200  and  _203
REMARK   88  A    between atoms: _203  and  _204
REMARK   89  A    between atoms: _207  and  _209
REMARK   90  A    between atoms: _209  and  _210
REMARK   91  A    between atoms: _209  and  _212
REMARK   92  A    between atoms: _212  and  _213
REMARK   93  A    between atoms: _217  and  _218
REMARK   94  A    between atoms: _223  and  _225
REMARK   95  A    between atoms: _225  and  _226
REMARK   96  A    between atoms: _225  and  _228
REMARK   97  A    between atoms: _231  and  _233
REMARK   98  A    between atoms: _233  and  _234
REMARK   99  A    between atoms: _233  and  _236
REMARK  100  A    between atoms: _236  and  _237
REMARK  101  A    between atoms: _242  and  _244
REMARK  102  A    between atoms: _244  and  _245
REMARK  103  A    between atoms: _244  and  _247
REMARK  104  A    between atoms: _247  and  _248
REMARK  105  A    between atoms: _251  and  _253
REMARK  106  A    between atoms: _253  and  _254
REMARK  107  A    between atoms: _253  and  _256
REMARK  108  A    between atoms: _256  and  _257
REMARK  109  A    between atoms: _260  and  _262
REMARK  110  A    between atoms: _262  and  _263
REMARK  111  A    between atoms: _265  and  _267
REMARK  112  A    between atoms: _267  and  _268
REMARK  113  A    between atoms: _267  and  _270
REMARK  114  A    between atoms: _270  and  _271
REMARK  115  A    between atoms: _271  and  _272
REMARK  116  A    between atoms: _272  and  _273
REMARK  117  A    between atoms: _282  and  _284
REMARK  118  A    between atoms: _284  and  _285
REMARK  119  A    between atoms: _284  and  _287
REMARK  120  A    between atoms: _287  and  _288
REMARK  121  A    between atoms: _293  and  _295
REMARK  122  A    between atoms: _295  and  _296
REMARK  123  A    between atoms: _295  and  _298
REMARK  124  A    between atoms: _298  and  _299
REMARK  125  A    between atoms: _299  and  _300
REMARK  126  A    between atoms: _300  and  _301
REMARK  127  A    between atoms: _310  and  _312
REMARK  128  A    between atoms: _312  and  _313
REMARK  129  A    between atoms: _312  and  _315
REMARK  130  A    between atoms: _315  and  _316
REMARK  131  A    between atoms: _319  and  _321
REMARK  132  A    between atoms: _321  and  _322
REMARK  133  A    between atoms: _321  and  _324
REMARK  134  A    between atoms: _324  and  _325
REMARK  135  A    between atoms: _328  and  _330
REMARK  136  A    between atoms: _330  and  _331
REMARK  137  A    between atoms: _330  and  _333
REMARK  138  A    between atoms: _333  and  _334
REMARK  139  A    between atoms: _337  and  _339
REMARK  140  A    between atoms: _339  and  _340
REMARK  141  A    between atoms: _339  and  _342
REMARK  142  A    between atoms: _342  and  _343
REMARK  143  A    between atoms: _346  and  _348
REMARK  144  A    between atoms: _348  and  _349
REMARK  145  A    between atoms: _348  and  _351
REMARK  146  A    between atoms: _351  and  _352
REMARK  147  A    between atoms: _355  and  _357
REMARK  148  A    between atoms: _357  and  _358
REMARK  149  A    between atoms: _360  and  _362
REMARK  150  A    between atoms: _362  and  _363
REMARK  151  A    between atoms: _366  and  _368
REMARK  152  A    between atoms: _368  and  _369
REMARK  153  A    between atoms: _368  and  _371
REMARK  154  A    between atoms: _371  and  _372
REMARK  155  A    between atoms: _375  and  _377
REMARK  156  A    between atoms: _377  and  _378
REMARK  157  A    between atoms: _377  and  _380
REMARK  158  A    between atoms: _380  and  _381
REMARK  159  A    between atoms: _384  and  _386
REMARK  160  A    between atoms: _386  and  _387
REMARK  161  A    between atoms: _386  and  _389
REMARK  162  A    between atoms: _389  and  _390
REMARK  163  A    between atoms: _393  and  _395
REMARK  164  A    between atoms: _395  and  _396
REMARK  165  A    between atoms: _395  and  _398
REMARK  166  A    between atoms: _401  and  _403
REMARK  167  A    between atoms: _403  and  _404
REMARK  168  A    between atoms: _403  and  _406
REMARK  169  A    between atoms: _406  and  _407
REMARK  170  A    between atoms: _407  and  _408
REMARK  171  A    between atoms: _408  and  _409
REMARK  172  A    between atoms: _409  and  _410
REMARK  173  A    between atoms: _414  and  _416
REMARK  174  A    between atoms: _416  and  _417
REMARK  175  A    between atoms: _416  and  _419
REMARK  176  A    between atoms: _419  and  _420
REMARK  177  A    between atoms: _420  and  _421
REMARK  178  A    between atoms: _423  and  _425
REMARK  179  A    between atoms: _425  and  _426
REMARK  180  A    between atoms: _425  and  _428
REMARK  181  A    between atoms: _428  and  _429
REMARK  182  A    between atoms: _432  and  _434
REMARK  183  A    between atoms: _434  and  _435
REMARK  184  A    between atoms: _437  and  _439
REMARK  185  A    between atoms: _439  and  _440
REMARK  186  A    between atoms: _442  and  _444
REMARK  187  A    between atoms: _444  and  _445
REMARK  188  A    between atoms: _444  and  _447
REMARK  189  A    between atoms: _447  and  _448
REMARK  190  A    between atoms: _451  and  _453
REMARK  191  A    between atoms: _453  and  _454
REMARK  192  A    between atoms: _456  and  _458
REMARK  193  A    between atoms: _458  and  _459
REMARK  194  A    between atoms: _461  and  _463
REMARK  195  A    between atoms: _463  and  _464
REMARK  196  A    between atoms: _463  and  _466
REMARK  197  A    between atoms: _466  and  _467
REMARK  198  A    between atoms: _473  and  _475
REMARK  199  A    between atoms: _475  and  _476
REMARK  200  A    between atoms: _475  and  _478
REMARK  201  A    between atoms: _478  and  _479
REMARK  202  A    between atoms: _482  and  _484
REMARK  203  A    between atoms: _484  and  _485
REMARK  204  A    between atoms: _484  and  _487
REMARK  205  A    between atoms: _490  and  _492
REMARK  206  A    between atoms: _492  and  _493
REMARK  207  A    between atoms: _492  and  _495
REMARK  208  A    between atoms: _495  and  _496
REMARK  209  A    between atoms: _499  and  _501
REMARK  210  A    between atoms: _501  and  _502
REMARK  211  A    between atoms: _501  and  _504
REMARK  212  A    between atoms: _504  and  _505
REMARK  213  A    between atoms: _509  and  _510
REMARK  214  A    between atoms: _515  and  _517
REMARK  215  A    between atoms: _517  and  _518
REMARK  216  A    between atoms: _517  and  _520
REMARK  217  A    between atoms: _523  and  _525
REMARK  218  A    between atoms: _525  and  _526
REMARK  219  A    between atoms: _525  and  _528
REMARK  220  A    between atoms: _528  and  _529
REMARK  221  A    between atoms: _534  and  _536
REMARK  222  A    between atoms: _536  and  _537
REMARK  223  A    between atoms: _536  and  _539
REMARK  224  A    between atoms: _539  and  _540
REMARK  225  A    between atoms: _543  and  _545
REMARK  226  A    between atoms: _545  and  _546
REMARK  227  A    between atoms: _545  and  _548
REMARK  228  A    between atoms: _548  and  _549
REMARK  229  A    between atoms: _552  and  _554
REMARK  230  A    between atoms: _554  and  _555
REMARK  231  A    between atoms: _557  and  _559
REMARK  232  A    between atoms: _559  and  _560
REMARK  233  A    between atoms: _559  and  _562
REMARK  234  A    between atoms: _562  and  _563
REMARK  235  A    between atoms: _563  and  _564
REMARK  236  A    between atoms: _564  and  _565
REMARK  237  A    between atoms: _574  and  _576
REMARK  238  A    between atoms: _576  and  _577
REMARK  239  A    between atoms: _576  and  _579
REMARK  240  A    between atoms: _579  and  _580
REMARK                            x       y       z     vdW  Elec       q    Type
REMARK                         _______ _______ _______ _____ _____    ______ ____
ROOT
ATOM      1  O   HOH     1      10.937  14.336  15.725  0.00  0.00    +0.000 OA
ENDROOT
TORSDOF 0
REMARK  Name = ../refined-set-2016/3kdc/3kdc_pocket.pdb
REMARK  240 active torsions:
REMARK  status: ('A' for Active; 'I' for Inactive)
REMARK    1  A    between atoms: _1  and  _3
REMARK    2  A    between atoms: _3  and  _4
REMARK    3  A    between atoms: _3  and  _6
REMARK    4  A    between atoms: _6  and  _7
REMARK    5  A    between atoms: _7  and  _8
REMARK    6  A    between atoms: _8  and  _9
REMARK    7  A    between atoms: _18  and  _20
REMARK    8  A    between atoms: _20  and  _21
REMARK    9  A    between atoms: _20  and  _23
REMARK   10  A    between atoms: _23  and  _24
REMARK   11  A    between atoms: _27  and  _29
REMARK   12  A    between atoms: _29  and  _30
REMARK   13  A    between atoms: _29  and  _32
REMARK   14  A    between atoms: _32  and  _33
REMARK   15  A    between atoms: _36  and  _38
REMARK   16  A    between atoms: _38  and  _39
REMARK   17  A    between atoms: _38  and  _41
REMARK   18  A    between atoms: _41  and  _42
REMARK   19  A    between atoms: _45  and  _47
REMARK   20  A    between atoms: _47  and  _48
REMARK   21  A    between atoms: _47  and  _50
REMARK   22  A    between atoms: _50  and  _51
REMARK   23  A    between atoms: _54  and  _56
REMARK   24  A    between atoms: _56  and  _57
REMARK   25  A    between atoms: _59  and  _61
REMARK   26  A    between atoms: _61  and  _62
REMARK   27  A    between atoms: _65  and  _67
REMARK   28  A    between atoms: _67  and  _68
REMARK   29  A    between atoms: _67  and  _70
REMARK   30  A    between atoms: _70  and  _71
REMARK   31  A    between atoms: _74  and  _76
REMARK   32  A    between atoms: _76  and  _77
REMARK   33  A    between atoms: _76  and  _79
REMARK   34  A    between atoms: _79  and  _80
REMARK   35  A    between atoms: _83  and  _85
REMARK   36  A    between atoms: _85  and  _86
REMARK   37  A    between atoms: _85  and  _88
REMARK   38  A    between atoms: _88  and  _89
REMARK   39  A    between atoms: _92  and  _94
REMARK   40  A    between atoms: _94  and  _95
REMARK   41  A    between atoms: _94  and  _97
REMARK   42  A    between atoms: _100  and  _102
REMARK   43  A    between atoms: _102  and  _103
REMARK   44  A    between atoms: _102  and  _105
REMARK   45  A    between atoms: _105  and  _106
REMARK   46  A    between atoms: _109  and  _111
REMARK   47  A    between atoms: _111  and  _112
REMARK   48  A    between atoms: _111  and  _114
REMARK   49  A    between atoms: _114  and  _115
REMARK   50  A    between atoms: _115  and  _116
REMARK   51  A    between atoms: _116  and  _117
REMARK   52  A    between atoms: _117  and  _118
REMARK   53  A    between atoms: _122  and  _124
REMARK   54  A    between atoms: _124  and  _125
REMARK   55  A    between atoms: _124  and  _127
REMARK   56  A    between atoms: _127  and  _128
REMARK   57  A    between atoms: _128  and  _129
REMARK   58  A    between atoms: _131  and  _133
REMARK   59  A    between atoms: _133  and  _134
REMARK   60  A    between atoms: _133  and  _136
REMARK   61  A    between atoms: _136  and  _137
REMARK   62  A    between atoms: _140  and  _142
REMARK   63  A    between atoms: _142  and  _143
REMARK   64  A    between atoms: _145  and  _147
REMARK   65  A    between atoms: _147  and  _148
REMARK   66  A    between atoms: _150  and  _152
REMARK   67  A    between atoms: _152  and  _153
REMARK   68  A    between atoms: _152  and  _155
REMARK   69  A    between atoms: _155  and  _156
REMARK   70  A    between atoms: _159  and  _161
REMARK   71  A    between atoms: _161  and  _162
REMARK   72  A    between atoms: _164  and  _166
REMARK   73  A    between atoms: _166  and  _167
REMARK   74  A    between atoms: _169  and  _171
REMARK   75  A    between atoms: _171  and  _172
REMARK   76  A    between atoms: _171  and  _174
REMARK   77  A    between atoms: _174  and  _175
REMARK   78  A    between atoms: _181  and  _183
REMARK   79  A    between atoms: _183  and  _184
REMARK   80  A    between atoms: _183  and  _186
REMARK   81  A    between atoms: _186  and  _187
REMARK   82  A    between atoms: _190  and  _192
REMARK   83  A    between atoms: _192  and  _193
REMARK   84  A    between atoms: _192  and  _195
REMARK   85  A    between atoms: _198  and  _200
REMARK   86  A    between atoms: _200  and  _201
REMARK   87  A    between atoms: _200  and  _203
REMARK   88  A    between atoms: _203  and  _204
REMARK   89  A    between atoms: _207  and  _209
REMARK   90  A    between atoms: _209  and  _210
REMARK   91  A    between atoms: _209  and  _212
REMARK   92  A    between atoms: _212  and  _213
REMARK   93  A    between atoms: _217  and  _218
REMARK   94  A    between atoms: _223  and  _225
REMARK   95  A    between atoms: _225  and  _226
REMARK   96  A    between atoms: _225  and  _228
REMARK   97  A    between atoms: _231  and  _233
REMARK   98  A    between atoms: _233  and  _234
REMARK   99  A    between atoms: _233  and  _236
REMARK  100  A    between atoms: _236  and  _237
REMARK  101  A    between atoms: _242  and  _244
REMARK  102  A    between atoms: _244  and  _245
REMARK  103  A    between atoms: _244  and  _247
REMARK  104  A    between atoms: _247  and  _248
REMARK  105  A    between atoms: _251  and  _253
REMARK  106  A    between atoms: _253  and  _254
REMARK  107  A    between atoms: _253  and  _256
REMARK  108  A    between atoms: _256  and  _257
REMARK  109  A    between atoms: _260  and  _262
REMARK  110  A    between atoms: _262  and  _263
REMARK  111  A    between atoms: _265  and  _267
REMARK  112  A    between atoms: _267  and  _268
REMARK  113  A    between atoms: _267  and  _270
REMARK  114  A    between atoms: _270  and  _271
REMARK  115  A    between atoms: _271  and  _272
REMARK  116  A    between atoms: _272  and  _273
REMARK  117  A    between atoms: _282  and  _284
REMARK  118  A    between atoms: _284  and  _285
REMARK  119  A    between atoms: _284  and  _287
REMARK  120  A    between atoms: _287  and  _288
REMARK  121  A    between atoms: _293  and  _295
REMARK  122  A    between atoms: _295  and  _296
REMARK  123  A    between atoms: _295  and  _298
REMARK  124  A    between atoms: _298  and  _299
REMARK  125  A    between atoms: _299  and  _300
REMARK  126  A    between atoms: _300  and  _301
REMARK  127  A    between atoms: _310  and  _312
REMARK  128  A    between atoms: _312  and  _313
REMARK  129  A    between atoms: _312  and  _315
REMARK  130  A    between atoms: _315  and  _316
REMARK  131  A    between atoms: _319  and  _321
REMARK  132  A    between atoms: _321  and  _322
REMARK  133  A    between atoms: _321  and  _324
REMARK  134  A    between atoms: _324  and  _325
REMARK  135  A    between atoms: _328  and  _330
REMARK  136  A    between atoms: _330  and  _331
REMARK  137  A    between atoms: _330  and  _333
REMARK  138  A    between atoms: _333  and  _334
REMARK  139  A    between atoms: _337  and  _339
REMARK  140  A    between atoms: _339  and  _340
REMARK  141  A    between atoms: _339  and  _342
REMARK  142  A    between atoms: _342  and  _343
REMARK  143  A    between atoms: _346  and  _348
REMARK  144  A    between atoms: _348  and  _349
REMARK  145  A    between atoms: _348  and  _351
REMARK  146  A    between atoms: _351  and  _352
REMARK  147  A    between atoms: _355  and  _357
REMARK  148  A    between atoms: _357  and  _358
REMARK  149  A    between atoms: _360  and  _362
REMARK  150  A    between atoms: _362  and  _363
REMARK  151  A    between atoms: _366  and  _368
REMARK  152  A    between atoms: _368  and  _369
REMARK  153  A    between atoms: _368  and  _371
REMARK  154  A    between atoms: _371  and  _372
REMARK  155  A    between atoms: _375  and  _377
REMARK  156  A    between atoms: _377  and  _378
REMARK  157  A    between atoms: _377  and  _380
REMARK  158  A    between atoms: _380  and  _381
REMARK  159  A    between atoms: _384  and  _386
REMARK  160  A    between atoms: _386  and  _387
REMARK  161  A    between atoms: _386  and  _389
REMARK  162  A    between atoms: _389  and  _390
REMARK  163  A    between atoms: _393  and  _395
REMARK  164  A    between atoms: _395  and  _396
REMARK  165  A    between atoms: _395  and  _398
REMARK  166  A    between atoms: _401  and  _403
REMARK  167  A    between atoms: _403  and  _404
REMARK  168  A    between atoms: _403  and  _406
REMARK  169  A    between atoms: _406  and  _407
REMARK  170  A    between atoms: _407  and  _408
REMARK  171  A    between atoms: _408  and  _409
REMARK  172  A    between atoms: _409  and  _410
REMARK  173  A    between atoms: _414  and  _416
REMARK  174  A    between atoms: _416  and  _417
REMARK  175  A    between atoms: _416  and  _419
REMARK  176  A    between atoms: _419  and  _420
REMARK  177  A    between atoms: _420  and  _421
REMARK  178  A    between atoms: _423  and  _425
REMARK  179  A    between atoms: _425  and  _426
REMARK  180  A    between atoms: _425  and  _428
REMARK  181  A    between atoms: _428  and  _429
REMARK  182  A    between atoms: _432  and  _434
REMARK  183  A    between atoms: _434  and  _435
REMARK  184  A    between atoms: _437  and  _439
REMARK  185  A    between atoms: _439  and  _440
REMARK  186  A    between atoms: _442  and  _444
REMARK  187  A    between atoms: _444  and  _445
REMARK  188  A    between atoms: _444  and  _447
REMARK  189  A    between atoms: _447  and  _448
REMARK  190  A    between atoms: _451  and  _453
REMARK  191  A    between atoms: _453  and  _454
REMARK  192  A    between atoms: _456  and  _458
REMARK  193  A    between atoms: _458  and  _459
REMARK  194  A    between atoms: _461  and  _463
REMARK  195  A    between atoms: _463  and  _464
REMARK  196  A    between atoms: _463  and  _466
REMARK  197  A    between atoms: _466  and  _467
REMARK  198  A    between atoms: _473  and  _475
REMARK  199  A    between atoms: _475  and  _476
REMARK  200  A    between atoms: _475  and  _478
REMARK  201  A    between atoms: _478  and  _479
REMARK  202  A    between atoms: _482  and  _484
REMARK  203  A    between atoms: _484  and  _485
REMARK  204  A    between atoms: _484  and  _487
REMARK  205  A    between atoms: _490  and  _492
REMARK  206  A    between atoms: _492  and  _493
REMARK  207  A    between atoms: _492  and  _495
REMARK  208  A    between atoms: _495  and  _496
REMARK  209  A    between atoms: _499  and  _501
REMARK  210  A    between atoms: _501  and  _502
REMARK  211  A    between atoms: _501  and  _504
REMARK  212  A    between atoms: _504  and  _505
REMARK  213  A    between atoms: _509  and  _510
REMARK  214  A    between atoms: _515  and  _517
REMARK  215  A    between atoms: _517  and  _518
REMARK  216  A    between atoms: _517  and  _520
REMARK  217  A    between atoms: _523  and  _525
REMARK  218  A    between atoms: _525  and  _526
REMARK  219  A    between atoms: _525  and  _528
REMARK  220  A    between atoms: _528  and  _529
REMARK  221  A    between atoms: _534  and  _536
REMARK  222  A    between atoms: _536  and  _537
REMARK  223  A    between atoms: _536  and  _539
REMARK  224  A    between atoms: _539  and  _540
REMARK  225  A    between atoms: _543  and  _545
REMARK  226  A    between atoms: _545  and  _546
REMARK  227  A    between atoms: _545  and  _548
REMARK  228  A    between atoms: _548  and  _549
REMARK  229  A    between atoms: _552  and  _554
REMARK  230  A    between atoms: _554  and  _555
REMARK  231  A    between atoms: _557  and  _559
REMARK  232  A    between atoms: _559  and  _560
REMARK  233  A    between atoms: _559  and  _562
REMARK  234  A    between atoms: _562  and  _563
REMARK  235  A    between atoms: _563  and  _564
REMARK  236  A    between atoms: _564  and  _565
REMARK  237  A    between atoms: _574  and  _576
REMARK  238  A    between atoms: _576  and  _577
REMARK  239  A    between atoms: _576  and  _579
REMARK  240  A    between atoms: _579  and  _580
REMARK                            x       y       z     vdW  Elec       q    Type
REMARK                         _______ _______ _______ _____ _____    ______ ____
ROOT
ATOM      1  O   HOH     1       8.686  21.731  16.693  0.00  0.00    +0.000 OA
ENDROOT
TORSDOF 0
REMARK  Name = ../refined-set-2016/3kdc/3kdc_pocket.pdb
REMARK  240 active torsions:
REMARK  status: ('A' for Active; 'I' for Inactive)
REMARK    1  A    between atoms: _1  and  _3
REMARK    2  A    between atoms: _3  and  _4
REMARK    3  A    between atoms: _3  and  _6
REMARK    4  A    between atoms: _6  and  _7
REMARK    5  A    between atoms: _7  and  _8
REMARK    6  A    between atoms: _8  and  _9
REMARK    7  A    between atoms: _18  and  _20
REMARK    8  A    between atoms: _20  and  _21
REMARK    9  A    between atoms: _20  and  _23
REMARK   10  A    between atoms: _23  and  _24
REMARK   11  A    between atoms: _27  and  _29
REMARK   12  A    between atoms: _29  and  _30
REMARK   13  A    between atoms: _29  and  _32
REMARK   14  A    between atoms: _32  and  _33
REMARK   15  A    between atoms: _36  and  _38
REMARK   16  A    between atoms: _38  and  _39
REMARK   17  A    between atoms: _38  and  _41
REMARK   18  A    between atoms: _41  and  _42
REMARK   19  A    between atoms: _45  and  _47
REMARK   20  A    between atoms: _47  and  _48
REMARK   21  A    between atoms: _47  and  _50
REMARK   22  A    between atoms: _50  and  _51
REMARK   23  A    between atoms: _54  and  _56
REMARK   24  A    between atoms: _56  and  _57
REMARK   25  A    between atoms: _59  and  _61
REMARK   26  A    between atoms: _61  and  _62
REMARK   27  A    between atoms: _65  and  _67
REMARK   28  A    between atoms: _67  and  _68
REMARK   29  A    between atoms: _67  and  _70
REMARK   30  A    between atoms: _70  and  _71
REMARK   31  A    between atoms: _74  and  _76
REMARK   32  A    between atoms: _76  and  _77
REMARK   33  A    between atoms: _76  and  _79
REMARK   34  A    between atoms: _79  and  _80
REMARK   35  A    between atoms: _83  and  _85
REMARK   36  A    between atoms: _85  and  _86
REMARK   37  A    between atoms: _85  and  _88
REMARK   38  A    between atoms: _88  and  _89
REMARK   39  A    between atoms: _92  and  _94
REMARK   40  A    between atoms: _94  and  _95
REMARK   41  A    between atoms: _94  and  _97
REMARK   42  A    between atoms: _100  and  _102
REMARK   43  A    between atoms: _102  and  _103
REMARK   44  A    between atoms: _102  and  _105
REMARK   45  A    between atoms: _105  and  _106
REMARK   46  A    between atoms: _109  and  _111
REMARK   47  A    between atoms: _111  and  _112
REMARK   48  A    between atoms: _111  and  _114
REMARK   49  A    between atoms: _114  and  _115
REMARK   50  A    between atoms: _115  and  _116
REMARK   51  A    between atoms: _116  and  _117
REMARK   52  A    between atoms: _117  and  _118
REMARK   53  A    between atoms: _122  and  _124
REMARK   54  A    between atoms: _124  and  _125
REMARK   55  A    between atoms: _124  and  _127
REMARK   56  A    between atoms: _127  and  _128
REMARK   57  A    between atoms: _128  and  _129
REMARK   58  A    between atoms: _131  and  _133
REMARK   59  A    between atoms: _133  and  _134
REMARK   60  A    between atoms: _133  and  _136
REMARK   61  A    between atoms: _136  and  _137
REMARK   62  A    between atoms: _140  and  _142
REMARK   63  A    between atoms: _142  and  _143
REMARK   64  A    between atoms: _145  and  _147
REMARK   65  A    between atoms: _147  and  _148
REMARK   66  A    between atoms: _150  and  _152
REMARK   67  A    between atoms: _152  and  _153
REMARK   68  A    between atoms: _152  and  _155
REMARK   69  A    between atoms: _155  and  _156
REMARK   70  A    between atoms: _159  and  _161
REMARK   71  A    between atoms: _161  and  _162
REMARK   72  A    between atoms: _164  and  _166
REMARK   73  A    between atoms: _166  and  _167
REMARK   74  A    between atoms: _169  and  _171
REMARK   75  A    between atoms: _171  and  _172
REMARK   76  A    between atoms: _171  and  _174
REMARK   77  A    between atoms: _174  and  _175
REMARK   78  A    between atoms: _181  and  _183
REMARK   79  A    between atoms: _183  and  _184
REMARK   80  A    between atoms: _183  and  _186
REMARK   81  A    between atoms: _186  and  _187
REMARK   82  A    between atoms: _190  and  _192
REMARK   83  A    between atoms: _192  and  _193
REMARK   84  A    between atoms: _192  and  _195
REMARK   85  A    between atoms: _198  and  _200
REMARK   86  A    between atoms: _200  and  _201
REMARK   87  A    between atoms: _200  and  _203
REMARK   88  A    between atoms: _203  and  _204
REMARK   89  A    between atoms: _207  and  _209
REMARK   90  A    between atoms: _209  and  _210
REMARK   91  A    between atoms: _209  and  _212
REMARK   92  A    between atoms: _212  and  _213
REMARK   93  A    between atoms: _217  and  _218
REMARK   94  A    between atoms: _223  and  _225
REMARK   95  A    between atoms: _225  and  _226
REMARK   96  A    between atoms: _225  and  _228
REMARK   97  A    between atoms: _231  and  _233
REMARK   98  A    between atoms: _233  and  _234
REMARK   99  A    between atoms: _233  and  _236
REMARK  100  A    between atoms: _236  and  _237
REMARK  101  A    between atoms: _242  and  _244
REMARK  102  A    between atoms: _244  and  _245
REMARK  103  A    between atoms: _244  and  _247
REMARK  104  A    between atoms: _247  and  _248
REMARK  105  A    between atoms: _251  and  _253
REMARK  106  A    between atoms: _253  and  _254
REMARK  107  A    between atoms: _253  and  _256
REMARK  108  A    between atoms: _256  and  _257
REMARK  109  A    between atoms: _260  and  _262
REMARK  110  A    between atoms: _262  and  _263
REMARK  111  A    between atoms: _265  and  _267
REMARK  112  A    between atoms: _267  and  _268
REMARK  113  A    between atoms: _267  and  _270
REMARK  114  A    between atoms: _270  and  _271
REMARK  115  A    between atoms: _271  and  _272
REMARK  116  A    between atoms: _272  and  _273
REMARK  117  A    between atoms: _282  and  _284
REMARK  118  A    between atoms: _284  and  _285
REMARK  119  A    between atoms: _284  and  _287
REMARK  120  A    between atoms: _287  and  _288
REMARK  121  A    between atoms: _293  and  _295
REMARK  122  A    between atoms: _295  and  _296
REMARK  123  A    between atoms: _295  and  _298
REMARK  124  A    between atoms: _298  and  _299
REMARK  125  A    between atoms: _299  and  _300
REMARK  126  A    between atoms: _300  and  _301
REMARK  127  A    between atoms: _310  and  _312
REMARK  128  A    between atoms: _312  and  _313
REMARK  129  A    between atoms: _312  and  _315
REMARK  130  A    between atoms: _315  and  _316
REMARK  131  A    between atoms: _319  and  _321
REMARK  132  A    between atoms: _321  and  _322
REMARK  133  A    between atoms: _321  and  _324
REMARK  134  A    between atoms: _324  and  _325
REMARK  135  A    between atoms: _328  and  _330
REMARK  136  A    between atoms: _330  and  _331
REMARK  137  A    between atoms: _330  and  _333
REMARK  138  A    between atoms: _333  and  _334
REMARK  139  A    between atoms: _337  and  _339
REMARK  140  A    between atoms: _339  and  _340
REMARK  141  A    between atoms: _339  and  _342
REMARK  142  A    between atoms: _342  and  _343
REMARK  143  A    between atoms: _346  and  _348
REMARK  144  A    between atoms: _348  and  _349
REMARK  145  A    between atoms: _348  and  _351
REMARK  146  A    between atoms: _351  and  _352
REMARK  147  A    between atoms: _355  and  _357
REMARK  148  A    between atoms: _357  and  _358
REMARK  149  A    between atoms: _360  and  _362
REMARK  150  A    between atoms: _362  and  _363
REMARK  151  A    between atoms: _366  and  _368
REMARK  152  A    between atoms: _368  and  _369
REMARK  153  A    between atoms: _368  and  _371
REMARK  154  A    between atoms: _371  and  _372
REMARK  155  A    between atoms: _375  and  _377
REMARK  156  A    between atoms: _377  and  _378
REMARK  157  A    between atoms: _377  and  _380
REMARK  158  A    between atoms: _380  and  _381
REMARK  159  A    between atoms: _384  and  _386
REMARK  160  A    between atoms: _386  and  _387
REMARK  161  A    between atoms: _386  and  _389
REMARK  162  A    between atoms: _389  and  _390
REMARK  163  A    between atoms: _393  and  _395
REMARK  164  A    between atoms: _395  and  _396
REMARK  165  A    between atoms: _395  and  _398
REMARK  166  A    between atoms: _401  and  _403
REMARK  167  A    between atoms: _403  and  _404
REMARK  168  A    between atoms: _403  and  _406
REMARK  169  A    between atoms: _406  and  _407
REMARK  170  A    between atoms: _407  and  _408
REMARK  171  A    between atoms: _408  and  _409
REMARK  172  A    between atoms: _409  and  _410
REMARK  173  A    between atoms: _414  and  _416
REMARK  174  A    between atoms: _416  and  _417
REMARK  175  A    between atoms: _416  and  _419
REMARK  176  A    between atoms: _419  and  _420
REMARK  177  A    between atoms: _420  and  _421
REMARK  178  A    between atoms: _423  and  _425
REMARK  179  A    between atoms: _425  and  _426
REMARK  180  A    between atoms: _425  and  _428
REMARK  181  A    between atoms: _428  and  _429
REMARK  182  A    between atoms: _432  and  _434
REMARK  183  A    between atoms: _434  and  _435
REMARK  184  A    between atoms: _437  and  _439
REMARK  185  A    between atoms: _439  and  _440
REMARK  186  A    between atoms: _442  and  _444
REMARK  187  A    between atoms: _444  and  _445
REMARK  188  A    between atoms: _444  and  _447
REMARK  189  A    between atoms: _447  and  _448
REMARK  190  A    between atoms: _451  and  _453
REMARK  191  A    between atoms: _453  and  _454
REMARK  192  A    between atoms: _456  and  _458
REMARK  193  A    between atoms: _458  and  _459
REMARK  194  A    between atoms: _461  and  _463
REMARK  195  A    between atoms: _463  and  _464
REMARK  196  A    between atoms: _463  and  _466
REMARK  197  A    between atoms: _466  and  _467
REMARK  198  A    between atoms: _473  and  _475
REMARK  199  A    between atoms: _475  and  _476
REMARK  200  A    between atoms: _475  and  _478
REMARK  201  A    between atoms: _478  and  _479
REMARK  202  A    between atoms: _482  and  _484
REMARK  203  A    between atoms: _484  and  _485
REMARK  204  A    between atoms: _484  and  _487
REMARK  205  A    between atoms: _490  and  _492
REMARK  206  A    between atoms: _492  and  _493
REMARK  207  A    between atoms: _492  and  _495
REMARK  208  A    between atoms: _495  and  _496
REMARK  209  A    between atoms: _499  and  _501
REMARK  210  A    between atoms: _501  and  _502
REMARK  211  A    between atoms: _501  and  _504
REMARK  212  A    between atoms: _504  and  _505
REMARK  213  A    between atoms: _509  and  _510
REMARK  214  A    between atoms: _515  and  _517
REMARK  215  A    between atoms: _517  and  _518
REMARK  216  A    between atoms: _517  and  _520
REMARK  217  A    between atoms: _523  and  _525
REMARK  218  A    between atoms: _525  and  _526
REMARK  219  A    between atoms: _525  and  _528
REMARK  220  A    between atoms: _528  and  _529
REMARK  221  A    between atoms: _534  and  _536
REMARK  222  A    between atoms: _536  and  _537
REMARK  223  A    between atoms: _536  and  _539
REMARK  224  A    between atoms: _539  and  _540
REMARK  225  A    between atoms: _543  and  _545
REMARK  226  A    between atoms: _545  and  _546
REMARK  227  A    between atoms: _545  and  _548
REMARK  228  A    between atoms: _548  and  _549
REMARK  229  A    between atoms: _552  and  _554
REMARK  230  A    between atoms: _554  and  _555
REMARK  231  A    between atoms: _557  and  _559
REMARK  232  A    between atoms: _559  and  _560
REMARK  233  A    between atoms: _559  and  _562
REMARK  234  A    between atoms: _562  and  _563
REMARK  235  A    between atoms: _563  and  _564
REMARK  236  A    between atoms: _564  and  _565
REMARK  237  A    between atoms: _574  and  _576
REMARK  238  A    between atoms: _576  and  _577
REMARK  239  A    between atoms: _576  and  _579
REMARK  240  A    between atoms: _579  and  _580
REMARK                            x       y       z     vdW  Elec       q    Type
REMARK                         _______ _______ _______ _____ _____    ______ ____
ROOT
ATOM      1  O   HOH     1      15.951  15.607  11.845  0.00  0.00    +0.000 OA
ENDROOT
TORSDOF 0
REMARK  Name = ../refined-set-2016/3kdc/3kdc_pocket.pdb
REMARK  240 active torsions:
REMARK  status: ('A' for Active; 'I' for Inactive)
REMARK    1  A    between atoms: _1  and  _3
REMARK    2  A    between atoms: _3  and  _4
REMARK    3  A    between atoms: _3  and  _6
REMARK    4  A    between atoms: _6  and  _7
REMARK    5  A    between atoms: _7  and  _8
REMARK    6  A    between atoms: _8  and  _9
REMARK    7  A    between atoms: _18  and  _20
REMARK    8  A    between atoms: _20  and  _21
REMARK    9  A    between atoms: _20  and  _23
REMARK   10  A    between atoms: _23  and  _24
REMARK   11  A    between atoms: _27  and  _29
REMARK   12  A    between atoms: _29  and  _30
REMARK   13  A    between atoms: _29  and  _32
REMARK   14  A    between atoms: _32  and  _33
REMARK   15  A    between atoms: _36  and  _38
REMARK   16  A    between atoms: _38  and  _39
REMARK   17  A    between atoms: _38  and  _41
REMARK   18  A    between atoms: _41  and  _42
REMARK   19  A    between atoms: _45  and  _47
REMARK   20  A    between atoms: _47  and  _48
REMARK   21  A    between atoms: _47  and  _50
REMARK   22  A    between atoms: _50  and  _51
REMARK   23  A    between atoms: _54  and  _56
REMARK   24  A    between atoms: _56  and  _57
REMARK   25  A    between atoms: _59  and  _61
REMARK   26  A    between atoms: _61  and  _62
REMARK   27  A    between atoms: _65  and  _67
REMARK   28  A    between atoms: _67  and  _68
REMARK   29  A    between atoms: _67  and  _70
REMARK   30  A    between atoms: _70  and  _71
REMARK   31  A    between atoms: _74  and  _76
REMARK   32  A    between atoms: _76  and  _77
REMARK   33  A    between atoms: _76  and  _79
REMARK   34  A    between atoms: _79  and  _80
REMARK   35  A    between atoms: _83  and  _85
REMARK   36  A    between atoms: _85  and  _86
REMARK   37  A    between atoms: _85  and  _88
REMARK   38  A    between atoms: _88  and  _89
REMARK   39  A    between atoms: _92  and  _94
REMARK   40  A    between atoms: _94  and  _95
REMARK   41  A    between atoms: _94  and  _97
REMARK   42  A    between atoms: _100  and  _102
REMARK   43  A    between atoms: _102  and  _103
REMARK   44  A    between atoms: _102  and  _105
REMARK   45  A    between atoms: _105  and  _106
REMARK   46  A    between atoms: _109  and  _111
REMARK   47  A    between atoms: _111  and  _112
REMARK   48  A    between atoms: _111  and  _114
REMARK   49  A    between atoms: _114  and  _115
REMARK   50  A    between atoms: _115  and  _116
REMARK   51  A    between atoms: _116  and  _117
REMARK   52  A    between atoms: _117  and  _118
REMARK   53  A    between atoms: _122  and  _124
REMARK   54  A    between atoms: _124  and  _125
REMARK   55  A    between atoms: _124  and  _127
REMARK   56  A    between atoms: _127  and  _128
REMARK   57  A    between atoms: _128  and  _129
REMARK   58  A    between atoms: _131  and  _133
REMARK   59  A    between atoms: _133  and  _134
REMARK   60  A    between atoms: _133  and  _136
REMARK   61  A    between atoms: _136  and  _137
REMARK   62  A    between atoms: _140  and  _142
REMARK   63  A    between atoms: _142  and  _143
REMARK   64  A    between atoms: _145  and  _147
REMARK   65  A    between atoms: _147  and  _148
REMARK   66  A    between atoms: _150  and  _152
REMARK   67  A    between atoms: _152  and  _153
REMARK   68  A    between atoms: _152  and  _155
REMARK   69  A    between atoms: _155  and  _156
REMARK   70  A    between atoms: _159  and  _161
REMARK   71  A    between atoms: _161  and  _162
REMARK   72  A    between atoms: _164  and  _166
REMARK   73  A    between atoms: _166  and  _167
REMARK   74  A    between atoms: _169  and  _171
REMARK   75  A    between atoms: _171  and  _172
REMARK   76  A    between atoms: _171  and  _174
REMARK   77  A    between atoms: _174  and  _175
REMARK   78  A    between atoms: _181  and  _183
REMARK   79  A    between atoms: _183  and  _184
REMARK   80  A    between atoms: _183  and  _186
REMARK   81  A    between atoms: _186  and  _187
REMARK   82  A    between atoms: _190  and  _192
REMARK   83  A    between atoms: _192  and  _193
REMARK   84  A    between atoms: _192  and  _195
REMARK   85  A    between atoms: _198  and  _200
REMARK   86  A    between atoms: _200  and  _201
REMARK   87  A    between atoms: _200  and  _203
REMARK   88  A    between atoms: _203  and  _204
REMARK   89  A    between atoms: _207  and  _209
REMARK   90  A    between atoms: _209  and  _210
REMARK   91  A    between atoms: _209  and  _212
REMARK   92  A    between atoms: _212  and  _213
REMARK   93  A    between atoms: _217  and  _218
REMARK   94  A    between atoms: _223  and  _225
REMARK   95  A    between atoms: _225  and  _226
REMARK   96  A    between atoms: _225  and  _228
REMARK   97  A    between atoms: _231  and  _233
REMARK   98  A    between atoms: _233  and  _234
REMARK   99  A    between atoms: _233  and  _236
REMARK  100  A    between atoms: _236  and  _237
REMARK  101  A    between atoms: _242  and  _244
REMARK  102  A    between atoms: _244  and  _245
REMARK  103  A    between atoms: _244  and  _247
REMARK  104  A    between atoms: _247  and  _248
REMARK  105  A    between atoms: _251  and  _253
REMARK  106  A    between atoms: _253  and  _254
REMARK  107  A    between atoms: _253  and  _256
REMARK  108  A    between atoms: _256  and  _257
REMARK  109  A    between atoms: _260  and  _262
REMARK  110  A    between atoms: _262  and  _263
REMARK  111  A    between atoms: _265  and  _267
REMARK  112  A    between atoms: _267  and  _268
REMARK  113  A    between atoms: _267  and  _270
REMARK  114  A    between atoms: _270  and  _271
REMARK  115  A    between atoms: _271  and  _272
REMARK  116  A    between atoms: _272  and  _273
REMARK  117  A    between atoms: _282  and  _284
REMARK  118  A    between atoms: _284  and  _285
REMARK  119  A    between atoms: _284  and  _287
REMARK  120  A    between atoms: _287  and  _288
REMARK  121  A    between atoms: _293  and  _295
REMARK  122  A    between atoms: _295  and  _296
REMARK  123  A    between atoms: _295  and  _298
REMARK  124  A    between atoms: _298  and  _299
REMARK  125  A    between atoms: _299  and  _300
REMARK  126  A    between atoms: _300  and  _301
REMARK  127  A    between atoms: _310  and  _312
REMARK  128  A    between atoms: _312  and  _313
REMARK  129  A    between atoms: _312  and  _315
REMARK  130  A    between atoms: _315  and  _316
REMARK  131  A    between atoms: _319  and  _321
REMARK  132  A    between atoms: _321  and  _322
REMARK  133  A    between atoms: _321  and  _324
REMARK  134  A    between atoms: _324  and  _325
REMARK  135  A    between atoms: _328  and  _330
REMARK  136  A    between atoms: _330  and  _331
REMARK  137  A    between atoms: _330  and  _333
REMARK  138  A    between atoms: _333  and  _334
REMARK  139  A    between atoms: _337  and  _339
REMARK  140  A    between atoms: _339  and  _340
REMARK  141  A    between atoms: _339  and  _342
REMARK  142  A    between atoms: _342  and  _343
REMARK  143  A    between atoms: _346  and  _348
REMARK  144  A    between atoms: _348  and  _349
REMARK  145  A    between atoms: _348  and  _351
REMARK  146  A    between atoms: _351  and  _352
REMARK  147  A    between atoms: _355  and  _357
REMARK  148  A    between atoms: _357  and  _358
REMARK  149  A    between atoms: _360  and  _362
REMARK  150  A    between atoms: _362  and  _363
REMARK  151  A    between atoms: _366  and  _368
REMARK  152  A    between atoms: _368  and  _369
REMARK  153  A    between atoms: _368  and  _371
REMARK  154  A    between atoms: _371  and  _372
REMARK  155  A    between atoms: _375  and  _377
REMARK  156  A    between atoms: _377  and  _378
REMARK  157  A    between atoms: _377  and  _380
REMARK  158  A    between atoms: _380  and  _381
REMARK  159  A    between atoms: _384  and  _386
REMARK  160  A    between atoms: _386  and  _387
REMARK  161  A    between atoms: _386  and  _389
REMARK  162  A    between atoms: _389  and  _390
REMARK  163  A    between atoms: _393  and  _395
REMARK  164  A    between atoms: _395  and  _396
REMARK  165  A    between atoms: _395  and  _398
REMARK  166  A    between atoms: _401  and  _403
REMARK  167  A    between atoms: _403  and  _404
REMARK  168  A    between atoms: _403  and  _406
REMARK  169  A    between atoms: _406  and  _407
REMARK  170  A    between atoms: _407  and  _408
REMARK  171  A    between atoms: _408  and  _409
REMARK  172  A    between atoms: _409  and  _410
REMARK  173  A    between atoms: _414  and  _416
REMARK  174  A    between atoms: _416  and  _417
REMARK  175  A    between atoms: _416  and  _419
REMARK  176  A    between atoms: _419  and  _420
REMARK  177  A    between atoms: _420  and  _421
REMARK  178  A    between atoms: _423  and  _425
REMARK  179  A    between atoms: _425  and  _426
REMARK  180  A    between atoms: _425  and  _428
REMARK  181  A    between atoms: _428  and  _429
REMARK  182  A    between atoms: _432  and  _434
REMARK  183  A    between atoms: _434  and  _435
REMARK  184  A    between atoms: _437  and  _439
REMARK  185  A    between atoms: _439  and  _440
REMARK  186  A    between atoms: _442  and  _444
REMARK  187  A    between atoms: _444  and  _445
REMARK  188  A    between atoms: _444  and  _447
REMARK  189  A    between atoms: _447  and  _448
REMARK  190  A    between atoms: _451  and  _453
REMARK  191  A    between atoms: _453  and  _454
REMARK  192  A    between atoms: _456  and  _458
REMARK  193  A    between atoms: _458  and  _459
REMARK  194  A    between atoms: _461  and  _463
REMARK  195  A    between atoms: _463  and  _464
REMARK  196  A    between atoms: _463  and  _466
REMARK  197  A    between atoms: _466  and  _467
REMARK  198  A    between atoms: _473  and  _475
REMARK  199  A    between atoms: _475  and  _476
REMARK  200  A    between atoms: _475  and  _478
REMARK  201  A    between atoms: _478  and  _479
REMARK  202  A    between atoms: _482  and  _484
REMARK  203  A    between atoms: _484  and  _485
REMARK  204  A    between atoms: _484  and  _487
REMARK  205  A    between atoms: _490  and  _492
REMARK  206  A    between atoms: _492  and  _493
REMARK  207  A    between atoms: _492  and  _495
REMARK  208  A    between atoms: _495  and  _496
REMARK  209  A    between atoms: _499  and  _501
REMARK  210  A    between atoms: _501  and  _502
REMARK  211  A    between atoms: _501  and  _504
REMARK  212  A    between atoms: _504  and  _505
REMARK  213  A    between atoms: _509  and  _510
REMARK  214  A    between atoms: _515  and  _517
REMARK  215  A    between atoms: _517  and  _518
REMARK  216  A    between atoms: _517  and  _520
REMARK  217  A    between atoms: _523  and  _525
REMARK  218  A    between atoms: _525  and  _526
REMARK  219  A    between atoms: _525  and  _528
REMARK  220  A    between atoms: _528  and  _529
REMARK  221  A    between atoms: _534  and  _536
REMARK  222  A    between atoms: _536  and  _537
REMARK  223  A    between atoms: _536  and  _539
REMARK  224  A    between atoms: _539  and  _540
REMARK  225  A    between atoms: _543  and  _545
REMARK  226  A    between atoms: _545  and  _546
REMARK  227  A    between atoms: _545  and  _548
REMARK  228  A    between atoms: _548  and  _549
REMARK  229  A    between atoms: _552  and  _554
REMARK  230  A    between atoms: _554  and  _555
REMARK  231  A    between atoms: _557  and  _559
REMARK  232  A    between atoms: _559  and  _560
REMARK  233  A    between atoms: _559  and  _562
REMARK  234  A    between atoms: _562  and  _563
REMARK  235  A    between atoms: _563  and  _564
REMARK  236  A    between atoms: _564  and  _565
REMARK  237  A    between atoms: _574  and  _576
REMARK  238  A    between atoms: _576  and  _577
REMARK  239  A    between atoms: _576  and  _579
REMARK  240  A    between atoms: _579  and  _580
REMARK                            x       y       z     vdW  Elec       q    Type
REMARK                         _______ _______ _______ _____ _____    ______ ____
ROOT
ATOM      1  O   HOH     1      23.174  27.620  25.405  0.00  0.00    +0.000 OA
ENDROOT
TORSDOF 0
REMARK  Name = ../refined-set-2016/3kdc/3kdc_pocket.pdb
REMARK  240 active torsions:
REMARK  status: ('A' for Active; 'I' for Inactive)
REMARK    1  A    between atoms: _1  and  _3
REMARK    2  A    between atoms: _3  and  _4
REMARK    3  A    between atoms: _3  and  _6
REMARK    4  A    between atoms: _6  and  _7
REMARK    5  A    between atoms: _7  and  _8
REMARK    6  A    between atoms: _8  and  _9
REMARK    7  A    between atoms: _18  and  _20
REMARK    8  A    between atoms: _20  and  _21
REMARK    9  A    between atoms: _20  and  _23
REMARK   10  A    between atoms: _23  and  _24
REMARK   11  A    between atoms: _27  and  _29
REMARK   12  A    between atoms: _29  and  _30
REMARK   13  A    between atoms: _29  and  _32
REMARK   14  A    between atoms: _32  and  _33
REMARK   15  A    between atoms: _36  and  _38
REMARK   16  A    between atoms: _38  and  _39
REMARK   17  A    between atoms: _38  and  _41
REMARK   18  A    between atoms: _41  and  _42
REMARK   19  A    between atoms: _45  and  _47
REMARK   20  A    between atoms: _47  and  _48
REMARK   21  A    between atoms: _47  and  _50
REMARK   22  A    between atoms: _50  and  _51
REMARK   23  A    between atoms: _54  and  _56
REMARK   24  A    between atoms: _56  and  _57
REMARK   25  A    between atoms: _59  and  _61
REMARK   26  A    between atoms: _61  and  _62
REMARK   27  A    between atoms: _65  and  _67
REMARK   28  A    between atoms: _67  and  _68
REMARK   29  A    between atoms: _67  and  _70
REMARK   30  A    between atoms: _70  and  _71
REMARK   31  A    between atoms: _74  and  _76
REMARK   32  A    between atoms: _76  and  _77
REMARK   33  A    between atoms: _76  and  _79
REMARK   34  A    between atoms: _79  and  _80
REMARK   35  A    between atoms: _83  and  _85
REMARK   36  A    between atoms: _85  and  _86
REMARK   37  A    between atoms: _85  and  _88
REMARK   38  A    between atoms: _88  and  _89
REMARK   39  A    between atoms: _92  and  _94
REMARK   40  A    between atoms: _94  and  _95
REMARK   41  A    between atoms: _94  and  _97
REMARK   42  A    between atoms: _100  and  _102
REMARK   43  A    between atoms: _102  and  _103
REMARK   44  A    between atoms: _102  and  _105
REMARK   45  A    between atoms: _105  and  _106
REMARK   46  A    between atoms: _109  and  _111
REMARK   47  A    between atoms: _111  and  _112
REMARK   48  A    between atoms: _111  and  _114
REMARK   49  A    between atoms: _114  and  _115
REMARK   50  A    between atoms: _115  and  _116
REMARK   51  A    between atoms: _116  and  _117
REMARK   52  A    between atoms: _117  and  _118
REMARK   53  A    between atoms: _122  and  _124
REMARK   54  A    between atoms: _124  and  _125
REMARK   55  A    between atoms: _124  and  _127
REMARK   56  A    between atoms: _127  and  _128
REMARK   57  A    between atoms: _128  and  _129
REMARK   58  A    between atoms: _131  and  _133
REMARK   59  A    between atoms: _133  and  _134
REMARK   60  A    between atoms: _133  and  _136
REMARK   61  A    between atoms: _136  and  _137
REMARK   62  A    between atoms: _140  and  _142
REMARK   63  A    between atoms: _142  and  _143
REMARK   64  A    between atoms: _145  and  _147
REMARK   65  A    between atoms: _147  and  _148
REMARK   66  A    between atoms: _150  and  _152
REMARK   67  A    between atoms: _152  and  _153
REMARK   68  A    between atoms: _152  and  _155
REMARK   69  A    between atoms: _155  and  _156
REMARK   70  A    between atoms: _159  and  _161
REMARK   71  A    between atoms: _161  and  _162
REMARK   72  A    between atoms: _164  and  _166
REMARK   73  A    between atoms: _166  and  _167
REMARK   74  A    between atoms: _169  and  _171
REMARK   75  A    between atoms: _171  and  _172
REMARK   76  A    between atoms: _171  and  _174
REMARK   77  A    between atoms: _174  and  _175
REMARK   78  A    between atoms: _181  and  _183
REMARK   79  A    between atoms: _183  and  _184
REMARK   80  A    between atoms: _183  and  _186
REMARK   81  A    between atoms: _186  and  _187
REMARK   82  A    between atoms: _190  and  _192
REMARK   83  A    between atoms: _192  and  _193
REMARK   84  A    between atoms: _192  and  _195
REMARK   85  A    between atoms: _198  and  _200
REMARK   86  A    between atoms: _200  and  _201
REMARK   87  A    between atoms: _200  and  _203
REMARK   88  A    between atoms: _203  and  _204
REMARK   89  A    between atoms: _207  and  _209
REMARK   90  A    between atoms: _209  and  _210
REMARK   91  A    between atoms: _209  and  _212
REMARK   92  A    between atoms: _212  and  _213
REMARK   93  A    between atoms: _217  and  _218
REMARK   94  A    between atoms: _223  and  _225
REMARK   95  A    between atoms: _225  and  _226
REMARK   96  A    between atoms: _225  and  _228
REMARK   97  A    between atoms: _231  and  _233
REMARK   98  A    between atoms: _233  and  _234
REMARK   99  A    between atoms: _233  and  _236
REMARK  100  A    between atoms: _236  and  _237
REMARK  101  A    between atoms: _242  and  _244
REMARK  102  A    between atoms: _244  and  _245
REMARK  103  A    between atoms: _244  and  _247
REMARK  104  A    between atoms: _247  and  _248
REMARK  105  A    between atoms: _251  and  _253
REMARK  106  A    between atoms: _253  and  _254
REMARK  107  A    between atoms: _253  and  _256
REMARK  108  A    between atoms: _256  and  _257
REMARK  109  A    between atoms: _260  and  _262
REMARK  110  A    between atoms: _262  and  _263
REMARK  111  A    between atoms: _265  and  _267
REMARK  112  A    between atoms: _267  and  _268
REMARK  113  A    between atoms: _267  and  _270
REMARK  114  A    between atoms: _270  and  _271
REMARK  115  A    between atoms: _271  and  _272
REMARK  116  A    between atoms: _272  and  _273
REMARK  117  A    between atoms: _282  and  _284
REMARK  118  A    between atoms: _284  and  _285
REMARK  119  A    between atoms: _284  and  _287
REMARK  120  A    between atoms: _287  and  _288
REMARK  121  A    between atoms: _293  and  _295
REMARK  122  A    between atoms: _295  and  _296
REMARK  123  A    between atoms: _295  and  _298
REMARK  124  A    between atoms: _298  and  _299
REMARK  125  A    between atoms: _299  and  _300
REMARK  126  A    between atoms: _300  and  _301
REMARK  127  A    between atoms: _310  and  _312
REMARK  128  A    between atoms: _312  and  _313
REMARK  129  A    between atoms: _312  and  _315
REMARK  130  A    between atoms: _315  and  _316
REMARK  131  A    between atoms: _319  and  _321
REMARK  132  A    between atoms: _321  and  _322
REMARK  133  A    between atoms: _321  and  _324
REMARK  134  A    between atoms: _324  and  _325
REMARK  135  A    between atoms: _328  and  _330
REMARK  136  A    between atoms: _330  and  _331
REMARK  137  A    between atoms: _330  and  _333
REMARK  138  A    between atoms: _333  and  _334
REMARK  139  A    between atoms: _337  and  _339
REMARK  140  A    between atoms: _339  and  _340
REMARK  141  A    between atoms: _339  and  _342
REMARK  142  A    between atoms: _342  and  _343
REMARK  143  A    between atoms: _346  and  _348
REMARK  144  A    between atoms: _348  and  _349
REMARK  145  A    between atoms: _348  and  _351
REMARK  146  A    between atoms: _351  and  _352
REMARK  147  A    between atoms: _355  and  _357
REMARK  148  A    between atoms: _357  and  _358
REMARK  149  A    between atoms: _360  and  _362
REMARK  150  A    between atoms: _362  and  _363
REMARK  151  A    between atoms: _366  and  _368
REMARK  152  A    between atoms: _368  and  _369
REMARK  153  A    between atoms: _368  and  _371
REMARK  154  A    between atoms: _371  and  _372
REMARK  155  A    between atoms: _375  and  _377
REMARK  156  A    between atoms: _377  and  _378
REMARK  157  A    between atoms: _377  and  _380
REMARK  158  A    between atoms: _380  and  _381
REMARK  159  A    between atoms: _384  and  _386
REMARK  160  A    between atoms: _386  and  _387
REMARK  161  A    between atoms: _386  and  _389
REMARK  162  A    between atoms: _389  and  _390
REMARK  163  A    between atoms: _393  and  _395
REMARK  164  A    between atoms: _395  and  _396
REMARK  165  A    between atoms: _395  and  _398
REMARK  166  A    between atoms: _401  and  _403
REMARK  167  A    between atoms: _403  and  _404
REMARK  168  A    between atoms: _403  and  _406
REMARK  169  A    between atoms: _406  and  _407
REMARK  170  A    between atoms: _407  and  _408
REMARK  171  A    between atoms: _408  and  _409
REMARK  172  A    between atoms: _409  and  _410
REMARK  173  A    between atoms: _414  and  _416
REMARK  174  A    between atoms: _416  and  _417
REMARK  175  A    between atoms: _416  and  _419
REMARK  176  A    between atoms: _419  and  _420
REMARK  177  A    between atoms: _420  and  _421
REMARK  178  A    between atoms: _423  and  _425
REMARK  179  A    between atoms: _425  and  _426
REMARK  180  A    between atoms: _425  and  _428
REMARK  181  A    between atoms: _428  and  _429
REMARK  182  A    between atoms: _432  and  _434
REMARK  183  A    between atoms: _434  and  _435
REMARK  184  A    between atoms: _437  and  _439
REMARK  185  A    between atoms: _439  and  _440
REMARK  186  A    between atoms: _442  and  _444
REMARK  187  A    between atoms: _444  and  _445
REMARK  188  A    between atoms: _444  and  _447
REMARK  189  A    between atoms: _447  and  _448
REMARK  190  A    between atoms: _451  and  _453
REMARK  191  A    between atoms: _453  and  _454
REMARK  192  A    between atoms: _456  and  _458
REMARK  193  A    between atoms: _458  and  _459
REMARK  194  A    between atoms: _461  and  _463
REMARK  195  A    between atoms: _463  and  _464
REMARK  196  A    between atoms: _463  and  _466
REMARK  197  A    between atoms: _466  and  _467
REMARK  198  A    between atoms: _473  and  _475
REMARK  199  A    between atoms: _475  and  _476
REMARK  200  A    between atoms: _475  and  _478
REMARK  201  A    between atoms: _478  and  _479
REMARK  202  A    between atoms: _482  and  _484
REMARK  203  A    between atoms: _484  and  _485
REMARK  204  A    between atoms: _484  and  _487
REMARK  205  A    between atoms: _490  and  _492
REMARK  206  A    between atoms: _492  and  _493
REMARK  207  A    between atoms: _492  and  _495
REMARK  208  A    between atoms: _495  and  _496
REMARK  209  A    between atoms: _499  and  _501
REMARK  210  A    between atoms: _501  and  _502
REMARK  211  A    between atoms: _501  and  _504
REMARK  212  A    between atoms: _504  and  _505
REMARK  213  A    between atoms: _509  and  _510
REMARK  214  A    between atoms: _515  and  _517
REMARK  215  A    between atoms: _517  and  _518
REMARK  216  A    between atoms: _517  and  _520
REMARK  217  A    between atoms: _523  and  _525
REMARK  218  A    between atoms: _525  and  _526
REMARK  219  A    between atoms: _525  and  _528
REMARK  220  A    between atoms: _528  and  _529
REMARK  221  A    between atoms: _534  and  _536
REMARK  222  A    between atoms: _536  and  _537
REMARK  223  A    between atoms: _536  and  _539
REMARK  224  A    between atoms: _539  and  _540
REMARK  225  A    between atoms: _543  and  _545
REMARK  226  A    between atoms: _545  and  _546
REMARK  227  A    between atoms: _545  and  _548
REMARK  228  A    between atoms: _548  and  _549
REMARK  229  A    between atoms: _552  and  _554
REMARK  230  A    between atoms: _554  and  _555
REMARK  231  A    between atoms: _557  and  _559
REMARK  232  A    between atoms: _559  and  _560
REMARK  233  A    between atoms: _559  and  _562
REMARK  234  A    between atoms: _562  and  _563
REMARK  235  A    between atoms: _563  and  _564
REMARK  236  A    between atoms: _564  and  _565
REMARK  237  A    between atoms: _574  and  _576
REMARK  238  A    between atoms: _576  and  _577
REMARK  239  A    between atoms: _576  and  _579
REMARK  240  A    between atoms: _579  and  _580
REMARK                            x       y       z     vdW  Elec       q    Type
REMARK                         _______ _______ _______ _____ _____    ______ ____
ROOT
ATOM      1  O   HOH     1      13.139  16.092  11.771  0.00  0.00    +0.000 OA
ENDROOT
TORSDOF 0
REMARK  Name = ../refined-set-2016/3kdc/3kdc_pocket.pdb
REMARK  240 active torsions:
REMARK  status: ('A' for Active; 'I' for Inactive)
REMARK    1  A    between atoms: _1  and  _3
REMARK    2  A    between atoms: _3  and  _4
REMARK    3  A    between atoms: _3  and  _6
REMARK    4  A    between atoms: _6  and  _7
REMARK    5  A    between atoms: _7  and  _8
REMARK    6  A    between atoms: _8  and  _9
REMARK    7  A    between atoms: _18  and  _20
REMARK    8  A    between atoms: _20  and  _21
REMARK    9  A    between atoms: _20  and  _23
REMARK   10  A    between atoms: _23  and  _24
REMARK   11  A    between atoms: _27  and  _29
REMARK   12  A    between atoms: _29  and  _30
REMARK   13  A    between atoms: _29  and  _32
REMARK   14  A    between atoms: _32  and  _33
REMARK   15  A    between atoms: _36  and  _38
REMARK   16  A    between atoms: _38  and  _39
REMARK   17  A    between atoms: _38  and  _41
REMARK   18  A    between atoms: _41  and  _42
REMARK   19  A    between atoms: _45  and  _47
REMARK   20  A    between atoms: _47  and  _48
REMARK   21  A    between atoms: _47  and  _50
REMARK   22  A    between atoms: _50  and  _51
REMARK   23  A    between atoms: _54  and  _56
REMARK   24  A    between atoms: _56  and  _57
REMARK   25  A    between atoms: _59  and  _61
REMARK   26  A    between atoms: _61  and  _62
REMARK   27  A    between atoms: _65  and  _67
REMARK   28  A    between atoms: _67  and  _68
REMARK   29  A    between atoms: _67  and  _70
REMARK   30  A    between atoms: _70  and  _71
REMARK   31  A    between atoms: _74  and  _76
REMARK   32  A    between atoms: _76  and  _77
REMARK   33  A    between atoms: _76  and  _79
REMARK   34  A    between atoms: _79  and  _80
REMARK   35  A    between atoms: _83  and  _85
REMARK   36  A    between atoms: _85  and  _86
REMARK   37  A    between atoms: _85  and  _88
REMARK   38  A    between atoms: _88  and  _89
REMARK   39  A    between atoms: _92  and  _94
REMARK   40  A    between atoms: _94  and  _95
REMARK   41  A    between atoms: _94  and  _97
REMARK   42  A    between atoms: _100  and  _102
REMARK   43  A    between atoms: _102  and  _103
REMARK   44  A    between atoms: _102  and  _105
REMARK   45  A    between atoms: _105  and  _106
REMARK   46  A    between atoms: _109  and  _111
REMARK   47  A    between atoms: _111  and  _112
REMARK   48  A    between atoms: _111  and  _114
REMARK   49  A    between atoms: _114  and  _115
REMARK   50  A    between atoms: _115  and  _116
REMARK   51  A    between atoms: _116  and  _117
REMARK   52  A    between atoms: _117  and  _118
REMARK   53  A    between atoms: _122  and  _124
REMARK   54  A    between atoms: _124  and  _125
REMARK   55  A    between atoms: _124  and  _127
REMARK   56  A    between atoms: _127  and  _128
REMARK   57  A    between atoms: _128  and  _129
REMARK   58  A    between atoms: _131  and  _133
REMARK   59  A    between atoms: _133  and  _134
REMARK   60  A    between atoms: _133  and  _136
REMARK   61  A    between atoms: _136  and  _137
REMARK   62  A    between atoms: _140  and  _142
REMARK   63  A    between atoms: _142  and  _143
REMARK   64  A    between atoms: _145  and  _147
REMARK   65  A    between atoms: _147  and  _148
REMARK   66  A    between atoms: _150  and  _152
REMARK   67  A    between atoms: _152  and  _153
REMARK   68  A    between atoms: _152  and  _155
REMARK   69  A    between atoms: _155  and  _156
REMARK   70  A    between atoms: _159  and  _161
REMARK   71  A    between atoms: _161  and  _162
REMARK   72  A    between atoms: _164  and  _166
REMARK   73  A    between atoms: _166  and  _167
REMARK   74  A    between atoms: _169  and  _171
REMARK   75  A    between atoms: _171  and  _172
REMARK   76  A    between atoms: _171  and  _174
REMARK   77  A    between atoms: _174  and  _175
REMARK   78  A    between atoms: _181  and  _183
REMARK   79  A    between atoms: _183  and  _184
REMARK   80  A    between atoms: _183  and  _186
REMARK   81  A    between atoms: _186  and  _187
REMARK   82  A    between atoms: _190  and  _192
REMARK   83  A    between atoms: _192  and  _193
REMARK   84  A    between atoms: _192  and  _195
REMARK   85  A    between atoms: _198  and  _200
REMARK   86  A    between atoms: _200  and  _201
REMARK   87  A    between atoms: _200  and  _203
REMARK   88  A    between atoms: _203  and  _204
REMARK   89  A    between atoms: _207  and  _209
REMARK   90  A    between atoms: _209  and  _210
REMARK   91  A    between atoms: _209  and  _212
REMARK   92  A    between atoms: _212  and  _213
REMARK   93  A    between atoms: _217  and  _218
REMARK   94  A    between atoms: _223  and  _225
REMARK   95  A    between atoms: _225  and  _226
REMARK   96  A    between atoms: _225  and  _228
REMARK   97  A    between atoms: _231  and  _233
REMARK   98  A    between atoms: _233  and  _234
REMARK   99  A    between atoms: _233  and  _236
REMARK  100  A    between atoms: _236  and  _237
REMARK  101  A    between atoms: _242  and  _244
REMARK  102  A    between atoms: _244  and  _245
REMARK  103  A    between atoms: _244  and  _247
REMARK  104  A    between atoms: _247  and  _248
REMARK  105  A    between atoms: _251  and  _253
REMARK  106  A    between atoms: _253  and  _254
REMARK  107  A    between atoms: _253  and  _256
REMARK  108  A    between atoms: _256  and  _257
REMARK  109  A    between atoms: _260  and  _262
REMARK  110  A    between atoms: _262  and  _263
REMARK  111  A    between atoms: _265  and  _267
REMARK  112  A    between atoms: _267  and  _268
REMARK  113  A    between atoms: _267  and  _270
REMARK  114  A    between atoms: _270  and  _271
REMARK  115  A    between atoms: _271  and  _272
REMARK  116  A    between atoms: _272  and  _273
REMARK  117  A    between atoms: _282  and  _284
REMARK  118  A    between atoms: _284  and  _285
REMARK  119  A    between atoms: _284  and  _287
REMARK  120  A    between atoms: _287  and  _288
REMARK  121  A    between atoms: _293  and  _295
REMARK  122  A    between atoms: _295  and  _296
REMARK  123  A    between atoms: _295  and  _298
REMARK  124  A    between atoms: _298  and  _299
REMARK  125  A    between atoms: _299  and  _300
REMARK  126  A    between atoms: _300  and  _301
REMARK  127  A    between atoms: _310  and  _312
REMARK  128  A    between atoms: _312  and  _313
REMARK  129  A    between atoms: _312  and  _315
REMARK  130  A    between atoms: _315  and  _316
REMARK  131  A    between atoms: _319  and  _321
REMARK  132  A    between atoms: _321  and  _322
REMARK  133  A    between atoms: _321  and  _324
REMARK  134  A    between atoms: _324  and  _325
REMARK  135  A    between atoms: _328  and  _330
REMARK  136  A    between atoms: _330  and  _331
REMARK  137  A    between atoms: _330  and  _333
REMARK  138  A    between atoms: _333  and  _334
REMARK  139  A    between atoms: _337  and  _339
REMARK  140  A    between atoms: _339  and  _340
REMARK  141  A    between atoms: _339  and  _342
REMARK  142  A    between atoms: _342  and  _343
REMARK  143  A    between atoms: _346  and  _348
REMARK  144  A    between atoms: _348  and  _349
REMARK  145  A    between atoms: _348  and  _351
REMARK  146  A    between atoms: _351  and  _352
REMARK  147  A    between atoms: _355  and  _357
REMARK  148  A    between atoms: _357  and  _358
REMARK  149  A    between atoms: _360  and  _362
REMARK  150  A    between atoms: _362  and  _363
REMARK  151  A    between atoms: _366  and  _368
REMARK  152  A    between atoms: _368  and  _369
REMARK  153  A    between atoms: _368  and  _371
REMARK  154  A    between atoms: _371  and  _372
REMARK  155  A    between atoms: _375  and  _377
REMARK  156  A    between atoms: _377  and  _378
REMARK  157  A    between atoms: _377  and  _380
REMARK  158  A    between atoms: _380  and  _381
REMARK  159  A    between atoms: _384  and  _386
REMARK  160  A    between atoms: _386  and  _387
REMARK  161  A    between atoms: _386  and  _389
REMARK  162  A    between atoms: _389  and  _390
REMARK  163  A    between atoms: _393  and  _395
REMARK  164  A    between atoms: _395  and  _396
REMARK  165  A    between atoms: _395  and  _398
REMARK  166  A    between atoms: _401  and  _403
REMARK  167  A    between atoms: _403  and  _404
REMARK  168  A    between atoms: _403  and  _406
REMARK  169  A    between atoms: _406  and  _407
REMARK  170  A    between atoms: _407  and  _408
REMARK  171  A    between atoms: _408  and  _409
REMARK  172  A    between atoms: _409  and  _410
REMARK  173  A    between atoms: _414  and  _416
REMARK  174  A    between atoms: _416  and  _417
REMARK  175  A    between atoms: _416  and  _419
REMARK  176  A    between atoms: _419  and  _420
REMARK  177  A    between atoms: _420  and  _421
REMARK  178  A    between atoms: _423  and  _425
REMARK  179  A    between atoms: _425  and  _426
REMARK  180  A    between atoms: _425  and  _428
REMARK  181  A    between atoms: _428  and  _429
REMARK  182  A    between atoms: _432  and  _434
REMARK  183  A    between atoms: _434  and  _435
REMARK  184  A    between atoms: _437  and  _439
REMARK  185  A    between atoms: _439  and  _440
REMARK  186  A    between atoms: _442  and  _444
REMARK  187  A    between atoms: _444  and  _445
REMARK  188  A    between atoms: _444  and  _447
REMARK  189  A    between atoms: _447  and  _448
REMARK  190  A    between atoms: _451  and  _453
REMARK  191  A    between atoms: _453  and  _454
REMARK  192  A    between atoms: _456  and  _458
REMARK  193  A    between atoms: _458  and  _459
REMARK  194  A    between atoms: _461  and  _463
REMARK  195  A    between atoms: _463  and  _464
REMARK  196  A    between atoms: _463  and  _466
REMARK  197  A    between atoms: _466  and  _467
REMARK  198  A    between atoms: _473  and  _475
REMARK  199  A    between atoms: _475  and  _476
REMARK  200  A    between atoms: _475  and  _478
REMARK  201  A    between atoms: _478  and  _479
REMARK  202  A    between atoms: _482  and  _484
REMARK  203  A    between atoms: _484  and  _485
REMARK  204  A    between atoms: _484  and  _487
REMARK  205  A    between atoms: _490  and  _492
REMARK  206  A    between atoms: _492  and  _493
REMARK  207  A    between atoms: _492  and  _495
REMARK  208  A    between atoms: _495  and  _496
REMARK  209  A    between atoms: _499  and  _501
REMARK  210  A    between atoms: _501  and  _502
REMARK  211  A    between atoms: _501  and  _504
REMARK  212  A    between atoms: _504  and  _505
REMARK  213  A    between atoms: _509  and  _510
REMARK  214  A    between atoms: _515  and  _517
REMARK  215  A    between atoms: _517  and  _518
REMARK  216  A    between atoms: _517  and  _520
REMARK  217  A    between atoms: _523  and  _525
REMARK  218  A    between atoms: _525  and  _526
REMARK  219  A    between atoms: _525  and  _528
REMARK  220  A    between atoms: _528  and  _529
REMARK  221  A    between atoms: _534  and  _536
REMARK  222  A    between atoms: _536  and  _537
REMARK  223  A    between atoms: _536  and  _539
REMARK  224  A    between atoms: _539  and  _540
REMARK  225  A    between atoms: _543  and  _545
REMARK  226  A    between atoms: _545  and  _546
REMARK  227  A    between atoms: _545  and  _548
REMARK  228  A    between atoms: _548  and  _549
REMARK  229  A    between atoms: _552  and  _554
REMARK  230  A    between atoms: _554  and  _555
REMARK  231  A    between atoms: _557  and  _559
REMARK  232  A    between atoms: _559  and  _560
REMARK  233  A    between atoms: _559  and  _562
REMARK  234  A    between atoms: _562  and  _563
REMARK  235  A    between atoms: _563  and  _564
REMARK  236  A    between atoms: _564  and  _565
REMARK  237  A    between atoms: _574  and  _576
REMARK  238  A    between atoms: _576  and  _577
REMARK  239  A    between atoms: _576  and  _579
REMARK  240  A    between atoms: _579  and  _580
REMARK                            x       y       z     vdW  Elec       q    Type
REMARK                         _______ _______ _______ _____ _____    ______ ____
ROOT
ATOM      1  O   HOH     1       9.851  18.249  13.066  0.00  0.00    +0.000 OA
ENDROOT
TORSDOF 0
REMARK  Name = ../refined-set-2016/3kdc/3kdc_pocket.pdb
REMARK  240 active torsions:
REMARK  status: ('A' for Active; 'I' for Inactive)
REMARK    1  A    between atoms: _1  and  _3
REMARK    2  A    between atoms: _3  and  _4
REMARK    3  A    between atoms: _3  and  _6
REMARK    4  A    between atoms: _6  and  _7
REMARK    5  A    between atoms: _7  and  _8
REMARK    6  A    between atoms: _8  and  _9
REMARK    7  A    between atoms: _18  and  _20
REMARK    8  A    between atoms: _20  and  _21
REMARK    9  A    between atoms: _20  and  _23
REMARK   10  A    between atoms: _23  and  _24
REMARK   11  A    between atoms: _27  and  _29
REMARK   12  A    between atoms: _29  and  _30
REMARK   13  A    between atoms: _29  and  _32
REMARK   14  A    between atoms: _32  and  _33
REMARK   15  A    between atoms: _36  and  _38
REMARK   16  A    between atoms: _38  and  _39
REMARK   17  A    between atoms: _38  and  _41
REMARK   18  A    between atoms: _41  and  _42
REMARK   19  A    between atoms: _45  and  _47
REMARK   20  A    between atoms: _47  and  _48
REMARK   21  A    between atoms: _47  and  _50
REMARK   22  A    between atoms: _50  and  _51
REMARK   23  A    between atoms: _54  and  _56
REMARK   24  A    between atoms: _56  and  _57
REMARK   25  A    between atoms: _59  and  _61
REMARK   26  A    between atoms: _61  and  _62
REMARK   27  A    between atoms: _65  and  _67
REMARK   28  A    between atoms: _67  and  _68
REMARK   29  A    between atoms: _67  and  _70
REMARK   30  A    between atoms: _70  and  _71
REMARK   31  A    between atoms: _74  and  _76
REMARK   32  A    between atoms: _76  and  _77
REMARK   33  A    between atoms: _76  and  _79
REMARK   34  A    between atoms: _79  and  _80
REMARK   35  A    between atoms: _83  and  _85
REMARK   36  A    between atoms: _85  and  _86
REMARK   37  A    between atoms: _85  and  _88
REMARK   38  A    between atoms: _88  and  _89
REMARK   39  A    between atoms: _92  and  _94
REMARK   40  A    between atoms: _94  and  _95
REMARK   41  A    between atoms: _94  and  _97
REMARK   42  A    between atoms: _100  and  _102
REMARK   43  A    between atoms: _102  and  _103
REMARK   44  A    between atoms: _102  and  _105
REMARK   45  A    between atoms: _105  and  _106
REMARK   46  A    between atoms: _109  and  _111
REMARK   47  A    between atoms: _111  and  _112
REMARK   48  A    between atoms: _111  and  _114
REMARK   49  A    between atoms: _114  and  _115
REMARK   50  A    between atoms: _115  and  _116
REMARK   51  A    between atoms: _116  and  _117
REMARK   52  A    between atoms: _117  and  _118
REMARK   53  A    between atoms: _122  and  _124
REMARK   54  A    between atoms: _124  and  _125
REMARK   55  A    between atoms: _124  and  _127
REMARK   56  A    between atoms: _127  and  _128
REMARK   57  A    between atoms: _128  and  _129
REMARK   58  A    between atoms: _131  and  _133
REMARK   59  A    between atoms: _133  and  _134
REMARK   60  A    between atoms: _133  and  _136
REMARK   61  A    between atoms: _136  and  _137
REMARK   62  A    between atoms: _140  and  _142
REMARK   63  A    between atoms: _142  and  _143
REMARK   64  A    between atoms: _145  and  _147
REMARK   65  A    between atoms: _147  and  _148
REMARK   66  A    between atoms: _150  and  _152
REMARK   67  A    between atoms: _152  and  _153
REMARK   68  A    between atoms: _152  and  _155
REMARK   69  A    between atoms: _155  and  _156
REMARK   70  A    between atoms: _159  and  _161
REMARK   71  A    between atoms: _161  and  _162
REMARK   72  A    between atoms: _164  and  _166
REMARK   73  A    between atoms: _166  and  _167
REMARK   74  A    between atoms: _169  and  _171
REMARK   75  A    between atoms: _171  and  _172
REMARK   76  A    between atoms: _171  and  _174
REMARK   77  A    between atoms: _174  and  _175
REMARK   78  A    between atoms: _181  and  _183
REMARK   79  A    between atoms: _183  and  _184
REMARK   80  A    between atoms: _183  and  _186
REMARK   81  A    between atoms: _186  and  _187
REMARK   82  A    between atoms: _190  and  _192
REMARK   83  A    between atoms: _192  and  _193
REMARK   84  A    between atoms: _192  and  _195
REMARK   85  A    between atoms: _198  and  _200
REMARK   86  A    between atoms: _200  and  _201
REMARK   87  A    between atoms: _200  and  _203
REMARK   88  A    between atoms: _203  and  _204
REMARK   89  A    between atoms: _207  and  _209
REMARK   90  A    between atoms: _209  and  _210
REMARK   91  A    between atoms: _209  and  _212
REMARK   92  A    between atoms: _212  and  _213
REMARK   93  A    between atoms: _217  and  _218
REMARK   94  A    between atoms: _223  and  _225
REMARK   95  A    between atoms: _225  and  _226
REMARK   96  A    between atoms: _225  and  _228
REMARK   97  A    between atoms: _231  and  _233
REMARK   98  A    between atoms: _233  and  _234
REMARK   99  A    between atoms: _233  and  _236
REMARK  100  A    between atoms: _236  and  _237
REMARK  101  A    between atoms: _242  and  _244
REMARK  102  A    between atoms: _244  and  _245
REMARK  103  A    between atoms: _244  and  _247
REMARK  104  A    between atoms: _247  and  _248
REMARK  105  A    between atoms: _251  and  _253
REMARK  106  A    between atoms: _253  and  _254
REMARK  107  A    between atoms: _253  and  _256
REMARK  108  A    between atoms: _256  and  _257
REMARK  109  A    between atoms: _260  and  _262
REMARK  110  A    between atoms: _262  and  _263
REMARK  111  A    between atoms: _265  and  _267
REMARK  112  A    between atoms: _267  and  _268
REMARK  113  A    between atoms: _267  and  _270
REMARK  114  A    between atoms: _270  and  _271
REMARK  115  A    between atoms: _271  and  _272
REMARK  116  A    between atoms: _272  and  _273
REMARK  117  A    between atoms: _282  and  _284
REMARK  118  A    between atoms: _284  and  _285
REMARK  119  A    between atoms: _284  and  _287
REMARK  120  A    between atoms: _287  and  _288
REMARK  121  A    between atoms: _293  and  _295
REMARK  122  A    between atoms: _295  and  _296
REMARK  123  A    between atoms: _295  and  _298
REMARK  124  A    between atoms: _298  and  _299
REMARK  125  A    between atoms: _299  and  _300
REMARK  126  A    between atoms: _300  and  _301
REMARK  127  A    between atoms: _310  and  _312
REMARK  128  A    between atoms: _312  and  _313
REMARK  129  A    between atoms: _312  and  _315
REMARK  130  A    between atoms: _315  and  _316
REMARK  131  A    between atoms: _319  and  _321
REMARK  132  A    between atoms: _321  and  _322
REMARK  133  A    between atoms: _321  and  _324
REMARK  134  A    between atoms: _324  and  _325
REMARK  135  A    between atoms: _328  and  _330
REMARK  136  A    between atoms: _330  and  _331
REMARK  137  A    between atoms: _330  and  _333
REMARK  138  A    between atoms: _333  and  _334
REMARK  139  A    between atoms: _337  and  _339
REMARK  140  A    between atoms: _339  and  _340
REMARK  141  A    between atoms: _339  and  _342
REMARK  142  A    between atoms: _342  and  _343
REMARK  143  A    between atoms: _346  and  _348
REMARK  144  A    between atoms: _348  and  _349
REMARK  145  A    between atoms: _348  and  _351
REMARK  146  A    between atoms: _351  and  _352
REMARK  147  A    between atoms: _355  and  _357
REMARK  148  A    between atoms: _357  and  _358
REMARK  149  A    between atoms: _360  and  _362
REMARK  150  A    between atoms: _362  and  _363
REMARK  151  A    between atoms: _366  and  _368
REMARK  152  A    between atoms: _368  and  _369
REMARK  153  A    between atoms: _368  and  _371
REMARK  154  A    between atoms: _371  and  _372
REMARK  155  A    between atoms: _375  and  _377
REMARK  156  A    between atoms: _377  and  _378
REMARK  157  A    between atoms: _377  and  _380
REMARK  158  A    between atoms: _380  and  _381
REMARK  159  A    between atoms: _384  and  _386
REMARK  160  A    between atoms: _386  and  _387
REMARK  161  A    between atoms: _386  and  _389
REMARK  162  A    between atoms: _389  and  _390
REMARK  163  A    between atoms: _393  and  _395
REMARK  164  A    between atoms: _395  and  _396
REMARK  165  A    between atoms: _395  and  _398
REMARK  166  A    between atoms: _401  and  _403
REMARK  167  A    between atoms: _403  and  _404
REMARK  168  A    between atoms: _403  and  _406
REMARK  169  A    between atoms: _406  and  _407
REMARK  170  A    between atoms: _407  and  _408
REMARK  171  A    between atoms: _408  and  _409
REMARK  172  A    between atoms: _409  and  _410
REMARK  173  A    between atoms: _414  and  _416
REMARK  174  A    between atoms: _416  and  _417
REMARK  175  A    between atoms: _416  and  _419
REMARK  176  A    between atoms: _419  and  _420
REMARK  177  A    between atoms: _420  and  _421
REMARK  178  A    between atoms: _423  and  _425
REMARK  179  A    between atoms: _425  and  _426
REMARK  180  A    between atoms: _425  and  _428
REMARK  181  A    between atoms: _428  and  _429
REMARK  182  A    between atoms: _432  and  _434
REMARK  183  A    between atoms: _434  and  _435
REMARK  184  A    between atoms: _437  and  _439
REMARK  185  A    between atoms: _439  and  _440
REMARK  186  A    between atoms: _442  and  _444
REMARK  187  A    between atoms: _444  and  _445
REMARK  188  A    between atoms: _444  and  _447
REMARK  189  A    between atoms: _447  and  _448
REMARK  190  A    between atoms: _451  and  _453
REMARK  191  A    between atoms: _453  and  _454
REMARK  192  A    between atoms: _456  and  _458
REMARK  193  A    between atoms: _458  and  _459
REMARK  194  A    between atoms: _461  and  _463
REMARK  195  A    between atoms: _463  and  _464
REMARK  196  A    between atoms: _463  and  _466
REMARK  197  A    between atoms: _466  and  _467
REMARK  198  A    between atoms: _473  and  _475
REMARK  199  A    between atoms: _475  and  _476
REMARK  200  A    between atoms: _475  and  _478
REMARK  201  A    between atoms: _478  and  _479
REMARK  202  A    between atoms: _482  and  _484
REMARK  203  A    between atoms: _484  and  _485
REMARK  204  A    between atoms: _484  and  _487
REMARK  205  A    between atoms: _490  and  _492
REMARK  206  A    between atoms: _492  and  _493
REMARK  207  A    between atoms: _492  and  _495
REMARK  208  A    between atoms: _495  and  _496
REMARK  209  A    between atoms: _499  and  _501
REMARK  210  A    between atoms: _501  and  _502
REMARK  211  A    between atoms: _501  and  _504
REMARK  212  A    between atoms: _504  and  _505
REMARK  213  A    between atoms: _509  and  _510
REMARK  214  A    between atoms: _515  and  _517
REMARK  215  A    between atoms: _517  and  _518
REMARK  216  A    between atoms: _517  and  _520
REMARK  217  A    between atoms: _523  and  _525
REMARK  218  A    between atoms: _525  and  _526
REMARK  219  A    between atoms: _525  and  _528
REMARK  220  A    between atoms: _528  and  _529
REMARK  221  A    between atoms: _534  and  _536
REMARK  222  A    between atoms: _536  and  _537
REMARK  223  A    between atoms: _536  and  _539
REMARK  224  A    between atoms: _539  and  _540
REMARK  225  A    between atoms: _543  and  _545
REMARK  226  A    between atoms: _545  and  _546
REMARK  227  A    between atoms: _545  and  _548
REMARK  228  A    between atoms: _548  and  _549
REMARK  229  A    between atoms: _552  and  _554
REMARK  230  A    between atoms: _554  and  _555
REMARK  231  A    between atoms: _557  and  _559
REMARK  232  A    between atoms: _559  and  _560
REMARK  233  A    between atoms: _559  and  _562
REMARK  234  A    between atoms: _562  and  _563
REMARK  235  A    between atoms: _563  and  _564
REMARK  236  A    between atoms: _564  and  _565
REMARK  237  A    between atoms: _574  and  _576
REMARK  238  A    between atoms: _576  and  _577
REMARK  239  A    between atoms: _576  and  _579
REMARK  240  A    between atoms: _579  and  _580
REMARK                            x       y       z     vdW  Elec       q    Type
REMARK                         _______ _______ _______ _____ _____    ______ ____
ROOT
ATOM      1  O   HOH     1      26.397  22.643  24.156  0.00  0.00    +0.000 OA
ENDROOT
TORSDOF 0
REMARK  Name = ../refined-set-2016/3kdc/3kdc_pocket.pdb
REMARK  240 active torsions:
REMARK  status: ('A' for Active; 'I' for Inactive)
REMARK    1  A    between atoms: _1  and  _3
REMARK    2  A    between atoms: _3  and  _4
REMARK    3  A    between atoms: _3  and  _6
REMARK    4  A    between atoms: _6  and  _7
REMARK    5  A    between atoms: _7  and  _8
REMARK    6  A    between atoms: _8  and  _9
REMARK    7  A    between atoms: _18  and  _20
REMARK    8  A    between atoms: _20  and  _21
REMARK    9  A    between atoms: _20  and  _23
REMARK   10  A    between atoms: _23  and  _24
REMARK   11  A    between atoms: _27  and  _29
REMARK   12  A    between atoms: _29  and  _30
REMARK   13  A    between atoms: _29  and  _32
REMARK   14  A    between atoms: _32  and  _33
REMARK   15  A    between atoms: _36  and  _38
REMARK   16  A    between atoms: _38  and  _39
REMARK   17  A    between atoms: _38  and  _41
REMARK   18  A    between atoms: _41  and  _42
REMARK   19  A    between atoms: _45  and  _47
REMARK   20  A    between atoms: _47  and  _48
REMARK   21  A    between atoms: _47  and  _50
REMARK   22  A    between atoms: _50  and  _51
REMARK   23  A    between atoms: _54  and  _56
REMARK   24  A    between atoms: _56  and  _57
REMARK   25  A    between atoms: _59  and  _61
REMARK   26  A    between atoms: _61  and  _62
REMARK   27  A    between atoms: _65  and  _67
REMARK   28  A    between atoms: _67  and  _68
REMARK   29  A    between atoms: _67  and  _70
REMARK   30  A    between atoms: _70  and  _71
REMARK   31  A    between atoms: _74  and  _76
REMARK   32  A    between atoms: _76  and  _77
REMARK   33  A    between atoms: _76  and  _79
REMARK   34  A    between atoms: _79  and  _80
REMARK   35  A    between atoms: _83  and  _85
REMARK   36  A    between atoms: _85  and  _86
REMARK   37  A    between atoms: _85  and  _88
REMARK   38  A    between atoms: _88  and  _89
REMARK   39  A    between atoms: _92  and  _94
REMARK   40  A    between atoms: _94  and  _95
REMARK   41  A    between atoms: _94  and  _97
REMARK   42  A    between atoms: _100  and  _102
REMARK   43  A    between atoms: _102  and  _103
REMARK   44  A    between atoms: _102  and  _105
REMARK   45  A    between atoms: _105  and  _106
REMARK   46  A    between atoms: _109  and  _111
REMARK   47  A    between atoms: _111  and  _112
REMARK   48  A    between atoms: _111  and  _114
REMARK   49  A    between atoms: _114  and  _115
REMARK   50  A    between atoms: _115  and  _116
REMARK   51  A    between atoms: _116  and  _117
REMARK   52  A    between atoms: _117  and  _118
REMARK   53  A    between atoms: _122  and  _124
REMARK   54  A    between atoms: _124  and  _125
REMARK   55  A    between atoms: _124  and  _127
REMARK   56  A    between atoms: _127  and  _128
REMARK   57  A    between atoms: _128  and  _129
REMARK   58  A    between atoms: _131  and  _133
REMARK   59  A    between atoms: _133  and  _134
REMARK   60  A    between atoms: _133  and  _136
REMARK   61  A    between atoms: _136  and  _137
REMARK   62  A    between atoms: _140  and  _142
REMARK   63  A    between atoms: _142  and  _143
REMARK   64  A    between atoms: _145  and  _147
REMARK   65  A    between atoms: _147  and  _148
REMARK   66  A    between atoms: _150  and  _152
REMARK   67  A    between atoms: _152  and  _153
REMARK   68  A    between atoms: _152  and  _155
REMARK   69  A    between atoms: _155  and  _156
REMARK   70  A    between atoms: _159  and  _161
REMARK   71  A    between atoms: _161  and  _162
REMARK   72  A    between atoms: _164  and  _166
REMARK   73  A    between atoms: _166  and  _167
REMARK   74  A    between atoms: _169  and  _171
REMARK   75  A    between atoms: _171  and  _172
REMARK   76  A    between atoms: _171  and  _174
REMARK   77  A    between atoms: _174  and  _175
REMARK   78  A    between atoms: _181  and  _183
REMARK   79  A    between atoms: _183  and  _184
REMARK   80  A    between atoms: _183  and  _186
REMARK   81  A    between atoms: _186  and  _187
REMARK   82  A    between atoms: _190  and  _192
REMARK   83  A    between atoms: _192  and  _193
REMARK   84  A    between atoms: _192  and  _195
REMARK   85  A    between atoms: _198  and  _200
REMARK   86  A    between atoms: _200  and  _201
REMARK   87  A    between atoms: _200  and  _203
REMARK   88  A    between atoms: _203  and  _204
REMARK   89  A    between atoms: _207  and  _209
REMARK   90  A    between atoms: _209  and  _210
REMARK   91  A    between atoms: _209  and  _212
REMARK   92  A    between atoms: _212  and  _213
REMARK   93  A    between atoms: _217  and  _218
REMARK   94  A    between atoms: _223  and  _225
REMARK   95  A    between atoms: _225  and  _226
REMARK   96  A    between atoms: _225  and  _228
REMARK   97  A    between atoms: _231  and  _233
REMARK   98  A    between atoms: _233  and  _234
REMARK   99  A    between atoms: _233  and  _236
REMARK  100  A    between atoms: _236  and  _237
REMARK  101  A    between atoms: _242  and  _244
REMARK  102  A    between atoms: _244  and  _245
REMARK  103  A    between atoms: _244  and  _247
REMARK  104  A    between atoms: _247  and  _248
REMARK  105  A    between atoms: _251  and  _253
REMARK  106  A    between atoms: _253  and  _254
REMARK  107  A    between atoms: _253  and  _256
REMARK  108  A    between atoms: _256  and  _257
REMARK  109  A    between atoms: _260  and  _262
REMARK  110  A    between atoms: _262  and  _263
REMARK  111  A    between atoms: _265  and  _267
REMARK  112  A    between atoms: _267  and  _268
REMARK  113  A    between atoms: _267  and  _270
REMARK  114  A    between atoms: _270  and  _271
REMARK  115  A    between atoms: _271  and  _272
REMARK  116  A    between atoms: _272  and  _273
REMARK  117  A    between atoms: _282  and  _284
REMARK  118  A    between atoms: _284  and  _285
REMARK  119  A    between atoms: _284  and  _287
REMARK  120  A    between atoms: _287  and  _288
REMARK  121  A    between atoms: _293  and  _295
REMARK  122  A    between atoms: _295  and  _296
REMARK  123  A    between atoms: _295  and  _298
REMARK  124  A    between atoms: _298  and  _299
REMARK  125  A    between atoms: _299  and  _300
REMARK  126  A    between atoms: _300  and  _301
REMARK  127  A    between atoms: _310  and  _312
REMARK  128  A    between atoms: _312  and  _313
REMARK  129  A    between atoms: _312  and  _315
REMARK  130  A    between atoms: _315  and  _316
REMARK  131  A    between atoms: _319  and  _321
REMARK  132  A    between atoms: _321  and  _322
REMARK  133  A    between atoms: _321  and  _324
REMARK  134  A    between atoms: _324  and  _325
REMARK  135  A    between atoms: _328  and  _330
REMARK  136  A    between atoms: _330  and  _331
REMARK  137  A    between atoms: _330  and  _333
REMARK  138  A    between atoms: _333  and  _334
REMARK  139  A    between atoms: _337  and  _339
REMARK  140  A    between atoms: _339  and  _340
REMARK  141  A    between atoms: _339  and  _342
REMARK  142  A    between atoms: _342  and  _343
REMARK  143  A    between atoms: _346  and  _348
REMARK  144  A    between atoms: _348  and  _349
REMARK  145  A    between atoms: _348  and  _351
REMARK  146  A    between atoms: _351  and  _352
REMARK  147  A    between atoms: _355  and  _357
REMARK  148  A    between atoms: _357  and  _358
REMARK  149  A    between atoms: _360  and  _362
REMARK  150  A    between atoms: _362  and  _363
REMARK  151  A    between atoms: _366  and  _368
REMARK  152  A    between atoms: _368  and  _369
REMARK  153  A    between atoms: _368  and  _371
REMARK  154  A    between atoms: _371  and  _372
REMARK  155  A    between atoms: _375  and  _377
REMARK  156  A    between atoms: _377  and  _378
REMARK  157  A    between atoms: _377  and  _380
REMARK  158  A    between atoms: _380  and  _381
REMARK  159  A    between atoms: _384  and  _386
REMARK  160  A    between atoms: _386  and  _387
REMARK  161  A    between atoms: _386  and  _389
REMARK  162  A    between atoms: _389  and  _390
REMARK  163  A    between atoms: _393  and  _395
REMARK  164  A    between atoms: _395  and  _396
REMARK  165  A    between atoms: _395  and  _398
REMARK  166  A    between atoms: _401  and  _403
REMARK  167  A    between atoms: _403  and  _404
REMARK  168  A    between atoms: _403  and  _406
REMARK  169  A    between atoms: _406  and  _407
REMARK  170  A    between atoms: _407  and  _408
REMARK  171  A    between atoms: _408  and  _409
REMARK  172  A    between atoms: _409  and  _410
REMARK  173  A    between atoms: _414  and  _416
REMARK  174  A    between atoms: _416  and  _417
REMARK  175  A    between atoms: _416  and  _419
REMARK  176  A    between atoms: _419  and  _420
REMARK  177  A    between atoms: _420  and  _421
REMARK  178  A    between atoms: _423  and  _425
REMARK  179  A    between atoms: _425  and  _426
REMARK  180  A    between atoms: _425  and  _428
REMARK  181  A    between atoms: _428  and  _429
REMARK  182  A    between atoms: _432  and  _434
REMARK  183  A    between atoms: _434  and  _435
REMARK  184  A    between atoms: _437  and  _439
REMARK  185  A    between atoms: _439  and  _440
REMARK  186  A    between atoms: _442  and  _444
REMARK  187  A    between atoms: _444  and  _445
REMARK  188  A    between atoms: _444  and  _447
REMARK  189  A    between atoms: _447  and  _448
REMARK  190  A    between atoms: _451  and  _453
REMARK  191  A    between atoms: _453  and  _454
REMARK  192  A    between atoms: _456  and  _458
REMARK  193  A    between atoms: _458  and  _459
REMARK  194  A    between atoms: _461  and  _463
REMARK  195  A    between atoms: _463  and  _464
REMARK  196  A    between atoms: _463  and  _466
REMARK  197  A    between atoms: _466  and  _467
REMARK  198  A    between atoms: _473  and  _475
REMARK  199  A    between atoms: _475  and  _476
REMARK  200  A    between atoms: _475  and  _478
REMARK  201  A    between atoms: _478  and  _479
REMARK  202  A    between atoms: _482  and  _484
REMARK  203  A    between atoms: _484  and  _485
REMARK  204  A    between atoms: _484  and  _487
REMARK  205  A    between atoms: _490  and  _492
REMARK  206  A    between atoms: _492  and  _493
REMARK  207  A    between atoms: _492  and  _495
REMARK  208  A    between atoms: _495  and  _496
REMARK  209  A    between atoms: _499  and  _501
REMARK  210  A    between atoms: _501  and  _502
REMARK  211  A    between atoms: _501  and  _504
REMARK  212  A    between atoms: _504  and  _505
REMARK  213  A    between atoms: _509  and  _510
REMARK  214  A    between atoms: _515  and  _517
REMARK  215  A    between atoms: _517  and  _518
REMARK  216  A    between atoms: _517  and  _520
REMARK  217  A    between atoms: _523  and  _525
REMARK  218  A    between atoms: _525  and  _526
REMARK  219  A    between atoms: _525  and  _528
REMARK  220  A    between atoms: _528  and  _529
REMARK  221  A    between atoms: _534  and  _536
REMARK  222  A    between atoms: _536  and  _537
REMARK  223  A    between atoms: _536  and  _539
REMARK  224  A    between atoms: _539  and  _540
REMARK  225  A    between atoms: _543  and  _545
REMARK  226  A    between atoms: _545  and  _546
REMARK  227  A    between atoms: _545  and  _548
REMARK  228  A    between atoms: _548  and  _549
REMARK  229  A    between atoms: _552  and  _554
REMARK  230  A    between atoms: _554  and  _555
REMARK  231  A    between atoms: _557  and  _559
REMARK  232  A    between atoms: _559  and  _560
REMARK  233  A    between atoms: _559  and  _562
REMARK  234  A    between atoms: _562  and  _563
REMARK  235  A    between atoms: _563  and  _564
REMARK  236  A    between atoms: _564  and  _565
REMARK  237  A    between atoms: _574  and  _576
REMARK  238  A    between atoms: _576  and  _577
REMARK  239  A    between atoms: _576  and  _579
REMARK  240  A    between atoms: _579  and  _580
REMARK                            x       y       z     vdW  Elec       q    Type
REMARK                         _______ _______ _______ _____ _____    ______ ____
ROOT
ATOM      1  O   HOH     1      17.378  15.437   9.734  0.00  0.00    +0.000 OA
ENDROOT
TORSDOF 0
REMARK  Name = ../refined-set-2016/3kdc/3kdc_pocket.pdb
REMARK  240 active torsions:
REMARK  status: ('A' for Active; 'I' for Inactive)
REMARK    1  A    between atoms: _1  and  _3
REMARK    2  A    between atoms: _3  and  _4
REMARK    3  A    between atoms: _3  and  _6
REMARK    4  A    between atoms: _6  and  _7
REMARK    5  A    between atoms: _7  and  _8
REMARK    6  A    between atoms: _8  and  _9
REMARK    7  A    between atoms: _18  and  _20
REMARK    8  A    between atoms: _20  and  _21
REMARK    9  A    between atoms: _20  and  _23
REMARK   10  A    between atoms: _23  and  _24
REMARK   11  A    between atoms: _27  and  _29
REMARK   12  A    between atoms: _29  and  _30
REMARK   13  A    between atoms: _29  and  _32
REMARK   14  A    between atoms: _32  and  _33
REMARK   15  A    between atoms: _36  and  _38
REMARK   16  A    between atoms: _38  and  _39
REMARK   17  A    between atoms: _38  and  _41
REMARK   18  A    between atoms: _41  and  _42
REMARK   19  A    between atoms: _45  and  _47
REMARK   20  A    between atoms: _47  and  _48
REMARK   21  A    between atoms: _47  and  _50
REMARK   22  A    between atoms: _50  and  _51
REMARK   23  A    between atoms: _54  and  _56
REMARK   24  A    between atoms: _56  and  _57
REMARK   25  A    between atoms: _59  and  _61
REMARK   26  A    between atoms: _61  and  _62
REMARK   27  A    between atoms: _65  and  _67
REMARK   28  A    between atoms: _67  and  _68
REMARK   29  A    between atoms: _67  and  _70
REMARK   30  A    between atoms: _70  and  _71
REMARK   31  A    between atoms: _74  and  _76
REMARK   32  A    between atoms: _76  and  _77
REMARK   33  A    between atoms: _76  and  _79
REMARK   34  A    between atoms: _79  and  _80
REMARK   35  A    between atoms: _83  and  _85
REMARK   36  A    between atoms: _85  and  _86
REMARK   37  A    between atoms: _85  and  _88
REMARK   38  A    between atoms: _88  and  _89
REMARK   39  A    between atoms: _92  and  _94
REMARK   40  A    between atoms: _94  and  _95
REMARK   41  A    between atoms: _94  and  _97
REMARK   42  A    between atoms: _100  and  _102
REMARK   43  A    between atoms: _102  and  _103
REMARK   44  A    between atoms: _102  and  _105
REMARK   45  A    between atoms: _105  and  _106
REMARK   46  A    between atoms: _109  and  _111
REMARK   47  A    between atoms: _111  and  _112
REMARK   48  A    between atoms: _111  and  _114
REMARK   49  A    between atoms: _114  and  _115
REMARK   50  A    between atoms: _115  and  _116
REMARK   51  A    between atoms: _116  and  _117
REMARK   52  A    between atoms: _117  and  _118
REMARK   53  A    between atoms: _122  and  _124
REMARK   54  A    between atoms: _124  and  _125
REMARK   55  A    between atoms: _124  and  _127
REMARK   56  A    between atoms: _127  and  _128
REMARK   57  A    between atoms: _128  and  _129
REMARK   58  A    between atoms: _131  and  _133
REMARK   59  A    between atoms: _133  and  _134
REMARK   60  A    between atoms: _133  and  _136
REMARK   61  A    between atoms: _136  and  _137
REMARK   62  A    between atoms: _140  and  _142
REMARK   63  A    between atoms: _142  and  _143
REMARK   64  A    between atoms: _145  and  _147
REMARK   65  A    between atoms: _147  and  _148
REMARK   66  A    between atoms: _150  and  _152
REMARK   67  A    between atoms: _152  and  _153
REMARK   68  A    between atoms: _152  and  _155
REMARK   69  A    between atoms: _155  and  _156
REMARK   70  A    between atoms: _159  and  _161
REMARK   71  A    between atoms: _161  and  _162
REMARK   72  A    between atoms: _164  and  _166
REMARK   73  A    between atoms: _166  and  _167
REMARK   74  A    between atoms: _169  and  _171
REMARK   75  A    between atoms: _171  and  _172
REMARK   76  A    between atoms: _171  and  _174
REMARK   77  A    between atoms: _174  and  _175
REMARK   78  A    between atoms: _181  and  _183
REMARK   79  A    between atoms: _183  and  _184
REMARK   80  A    between atoms: _183  and  _186
REMARK   81  A    between atoms: _186  and  _187
REMARK   82  A    between atoms: _190  and  _192
REMARK   83  A    between atoms: _192  and  _193
REMARK   84  A    between atoms: _192  and  _195
REMARK   85  A    between atoms: _198  and  _200
REMARK   86  A    between atoms: _200  and  _201
REMARK   87  A    between atoms: _200  and  _203
REMARK   88  A    between atoms: _203  and  _204
REMARK   89  A    between atoms: _207  and  _209
REMARK   90  A    between atoms: _209  and  _210
REMARK   91  A    between atoms: _209  and  _212
REMARK   92  A    between atoms: _212  and  _213
REMARK   93  A    between atoms: _217  and  _218
REMARK   94  A    between atoms: _223  and  _225
REMARK   95  A    between atoms: _225  and  _226
REMARK   96  A    between atoms: _225  and  _228
REMARK   97  A    between atoms: _231  and  _233
REMARK   98  A    between atoms: _233  and  _234
REMARK   99  A    between atoms: _233  and  _236
REMARK  100  A    between atoms: _236  and  _237
REMARK  101  A    between atoms: _242  and  _244
REMARK  102  A    between atoms: _244  and  _245
REMARK  103  A    between atoms: _244  and  _247
REMARK  104  A    between atoms: _247  and  _248
REMARK  105  A    between atoms: _251  and  _253
REMARK  106  A    between atoms: _253  and  _254
REMARK  107  A    between atoms: _253  and  _256
REMARK  108  A    between atoms: _256  and  _257
REMARK  109  A    between atoms: _260  and  _262
REMARK  110  A    between atoms: _262  and  _263
REMARK  111  A    between atoms: _265  and  _267
REMARK  112  A    between atoms: _267  and  _268
REMARK  113  A    between atoms: _267  and  _270
REMARK  114  A    between atoms: _270  and  _271
REMARK  115  A    between atoms: _271  and  _272
REMARK  116  A    between atoms: _272  and  _273
REMARK  117  A    between atoms: _282  and  _284
REMARK  118  A    between atoms: _284  and  _285
REMARK  119  A    between atoms: _284  and  _287
REMARK  120  A    between atoms: _287  and  _288
REMARK  121  A    between atoms: _293  and  _295
REMARK  122  A    between atoms: _295  and  _296
REMARK  123  A    between atoms: _295  and  _298
REMARK  124  A    between atoms: _298  and  _299
REMARK  125  A    between atoms: _299  and  _300
REMARK  126  A    between atoms: _300  and  _301
REMARK  127  A    between atoms: _310  and  _312
REMARK  128  A    between atoms: _312  and  _313
REMARK  129  A    between atoms: _312  and  _315
REMARK  130  A    between atoms: _315  and  _316
REMARK  131  A    between atoms: _319  and  _321
REMARK  132  A    between atoms: _321  and  _322
REMARK  133  A    between atoms: _321  and  _324
REMARK  134  A    between atoms: _324  and  _325
REMARK  135  A    between atoms: _328  and  _330
REMARK  136  A    between atoms: _330  and  _331
REMARK  137  A    between atoms: _330  and  _333
REMARK  138  A    between atoms: _333  and  _334
REMARK  139  A    between atoms: _337  and  _339
REMARK  140  A    between atoms: _339  and  _340
REMARK  141  A    between atoms: _339  and  _342
REMARK  142  A    between atoms: _342  and  _343
REMARK  143  A    between atoms: _346  and  _348
REMARK  144  A    between atoms: _348  and  _349
REMARK  145  A    between atoms: _348  and  _351
REMARK  146  A    between atoms: _351  and  _352
REMARK  147  A    between atoms: _355  and  _357
REMARK  148  A    between atoms: _357  and  _358
REMARK  149  A    between atoms: _360  and  _362
REMARK  150  A    between atoms: _362  and  _363
REMARK  151  A    between atoms: _366  and  _368
REMARK  152  A    between atoms: _368  and  _369
REMARK  153  A    between atoms: _368  and  _371
REMARK  154  A    between atoms: _371  and  _372
REMARK  155  A    between atoms: _375  and  _377
REMARK  156  A    between atoms: _377  and  _378
REMARK  157  A    between atoms: _377  and  _380
REMARK  158  A    between atoms: _380  and  _381
REMARK  159  A    between atoms: _384  and  _386
REMARK  160  A    between atoms: _386  and  _387
REMARK  161  A    between atoms: _386  and  _389
REMARK  162  A    between atoms: _389  and  _390
REMARK  163  A    between atoms: _393  and  _395
REMARK  164  A    between atoms: _395  and  _396
REMARK  165  A    between atoms: _395  and  _398
REMARK  166  A    between atoms: _401  and  _403
REMARK  167  A    between atoms: _403  and  _404
REMARK  168  A    between atoms: _403  and  _406
REMARK  169  A    between atoms: _406  and  _407
REMARK  170  A    between atoms: _407  and  _408
REMARK  171  A    between atoms: _408  and  _409
REMARK  172  A    between atoms: _409  and  _410
REMARK  173  A    between atoms: _414  and  _416
REMARK  174  A    between atoms: _416  and  _417
REMARK  175  A    between atoms: _416  and  _419
REMARK  176  A    between atoms: _419  and  _420
REMARK  177  A    between atoms: _420  and  _421
REMARK  178  A    between atoms: _423  and  _425
REMARK  179  A    between atoms: _425  and  _426
REMARK  180  A    between atoms: _425  and  _428
REMARK  181  A    between atoms: _428  and  _429
REMARK  182  A    between atoms: _432  and  _434
REMARK  183  A    between atoms: _434  and  _435
REMARK  184  A    between atoms: _437  and  _439
REMARK  185  A    between atoms: _439  and  _440
REMARK  186  A    between atoms: _442  and  _444
REMARK  187  A    between atoms: _444  and  _445
REMARK  188  A    between atoms: _444  and  _447
REMARK  189  A    between atoms: _447  and  _448
REMARK  190  A    between atoms: _451  and  _453
REMARK  191  A    between atoms: _453  and  _454
REMARK  192  A    between atoms: _456  and  _458
REMARK  193  A    between atoms: _458  and  _459
REMARK  194  A    between atoms: _461  and  _463
REMARK  195  A    between atoms: _463  and  _464
REMARK  196  A    between atoms: _463  and  _466
REMARK  197  A    between atoms: _466  and  _467
REMARK  198  A    between atoms: _473  and  _475
REMARK  199  A    between atoms: _475  and  _476
REMARK  200  A    between atoms: _475  and  _478
REMARK  201  A    between atoms: _478  and  _479
REMARK  202  A    between atoms: _482  and  _484
REMARK  203  A    between atoms: _484  and  _485
REMARK  204  A    between atoms: _484  and  _487
REMARK  205  A    between atoms: _490  and  _492
REMARK  206  A    between atoms: _492  and  _493
REMARK  207  A    between atoms: _492  and  _495
REMARK  208  A    between atoms: _495  and  _496
REMARK  209  A    between atoms: _499  and  _501
REMARK  210  A    between atoms: _501  and  _502
REMARK  211  A    between atoms: _501  and  _504
REMARK  212  A    between atoms: _504  and  _505
REMARK  213  A    between atoms: _509  and  _510
REMARK  214  A    between atoms: _515  and  _517
REMARK  215  A    between atoms: _517  and  _518
REMARK  216  A    between atoms: _517  and  _520
REMARK  217  A    between atoms: _523  and  _525
REMARK  218  A    between atoms: _525  and  _526
REMARK  219  A    between atoms: _525  and  _528
REMARK  220  A    between atoms: _528  and  _529
REMARK  221  A    between atoms: _534  and  _536
REMARK  222  A    between atoms: _536  and  _537
REMARK  223  A    between atoms: _536  and  _539
REMARK  224  A    between atoms: _539  and  _540
REMARK  225  A    between atoms: _543  and  _545
REMARK  226  A    between atoms: _545  and  _546
REMARK  227  A    between atoms: _545  and  _548
REMARK  228  A    between atoms: _548  and  _549
REMARK  229  A    between atoms: _552  and  _554
REMARK  230  A    between atoms: _554  and  _555
REMARK  231  A    between atoms: _557  and  _559
REMARK  232  A    between atoms: _559  and  _560
REMARK  233  A    between atoms: _559  and  _562
REMARK  234  A    between atoms: _562  and  _563
REMARK  235  A    between atoms: _563  and  _564
REMARK  236  A    between atoms: _564  and  _565
REMARK  237  A    between atoms: _574  and  _576
REMARK  238  A    between atoms: _576  and  _577
REMARK  239  A    between atoms: _576  and  _579
REMARK  240  A    between atoms: _579  and  _580
REMARK                            x       y       z     vdW  Elec       q    Type
REMARK                         _______ _______ _______ _____ _____    ______ ____
ROOT
ATOM      1  O   HOH     1       6.120  12.992  24.769  0.00  0.00    +0.000 OA
ENDROOT
TORSDOF 0
REMARK  Name = ../refined-set-2016/3kdc/3kdc_pocket.pdb
REMARK  240 active torsions:
REMARK  status: ('A' for Active; 'I' for Inactive)
REMARK    1  A    between atoms: _1  and  _3
REMARK    2  A    between atoms: _3  and  _4
REMARK    3  A    between atoms: _3  and  _6
REMARK    4  A    between atoms: _6  and  _7
REMARK    5  A    between atoms: _7  and  _8
REMARK    6  A    between atoms: _8  and  _9
REMARK    7  A    between atoms: _18  and  _20
REMARK    8  A    between atoms: _20  and  _21
REMARK    9  A    between atoms: _20  and  _23
REMARK   10  A    between atoms: _23  and  _24
REMARK   11  A    between atoms: _27  and  _29
REMARK   12  A    between atoms: _29  and  _30
REMARK   13  A    between atoms: _29  and  _32
REMARK   14  A    between atoms: _32  and  _33
REMARK   15  A    between atoms: _36  and  _38
REMARK   16  A    between atoms: _38  and  _39
REMARK   17  A    between atoms: _38  and  _41
REMARK   18  A    between atoms: _41  and  _42
REMARK   19  A    between atoms: _45  and  _47
REMARK   20  A    between atoms: _47  and  _48
REMARK   21  A    between atoms: _47  and  _50
REMARK   22  A    between atoms: _50  and  _51
REMARK   23  A    between atoms: _54  and  _56
REMARK   24  A    between atoms: _56  and  _57
REMARK   25  A    between atoms: _59  and  _61
REMARK   26  A    between atoms: _61  and  _62
REMARK   27  A    between atoms: _65  and  _67
REMARK   28  A    between atoms: _67  and  _68
REMARK   29  A    between atoms: _67  and  _70
REMARK   30  A    between atoms: _70  and  _71
REMARK   31  A    between atoms: _74  and  _76
REMARK   32  A    between atoms: _76  and  _77
REMARK   33  A    between atoms: _76  and  _79
REMARK   34  A    between atoms: _79  and  _80
REMARK   35  A    between atoms: _83  and  _85
REMARK   36  A    between atoms: _85  and  _86
REMARK   37  A    between atoms: _85  and  _88
REMARK   38  A    between atoms: _88  and  _89
REMARK   39  A    between atoms: _92  and  _94
REMARK   40  A    between atoms: _94  and  _95
REMARK   41  A    between atoms: _94  and  _97
REMARK   42  A    between atoms: _100  and  _102
REMARK   43  A    between atoms: _102  and  _103
REMARK   44  A    between atoms: _102  and  _105
REMARK   45  A    between atoms: _105  and  _106
REMARK   46  A    between atoms: _109  and  _111
REMARK   47  A    between atoms: _111  and  _112
REMARK   48  A    between atoms: _111  and  _114
REMARK   49  A    between atoms: _114  and  _115
REMARK   50  A    between atoms: _115  and  _116
REMARK   51  A    between atoms: _116  and  _117
REMARK   52  A    between atoms: _117  and  _118
REMARK   53  A    between atoms: _122  and  _124
REMARK   54  A    between atoms: _124  and  _125
REMARK   55  A    between atoms: _124  and  _127
REMARK   56  A    between atoms: _127  and  _128
REMARK   57  A    between atoms: _128  and  _129
REMARK   58  A    between atoms: _131  and  _133
REMARK   59  A    between atoms: _133  and  _134
REMARK   60  A    between atoms: _133  and  _136
REMARK   61  A    between atoms: _136  and  _137
REMARK   62  A    between atoms: _140  and  _142
REMARK   63  A    between atoms: _142  and  _143
REMARK   64  A    between atoms: _145  and  _147
REMARK   65  A    between atoms: _147  and  _148
REMARK   66  A    between atoms: _150  and  _152
REMARK   67  A    between atoms: _152  and  _153
REMARK   68  A    between atoms: _152  and  _155
REMARK   69  A    between atoms: _155  and  _156
REMARK   70  A    between atoms: _159  and  _161
REMARK   71  A    between atoms: _161  and  _162
REMARK   72  A    between atoms: _164  and  _166
REMARK   73  A    between atoms: _166  and  _167
REMARK   74  A    between atoms: _169  and  _171
REMARK   75  A    between atoms: _171  and  _172
REMARK   76  A    between atoms: _171  and  _174
REMARK   77  A    between atoms: _174  and  _175
REMARK   78  A    between atoms: _181  and  _183
REMARK   79  A    between atoms: _183  and  _184
REMARK   80  A    between atoms: _183  and  _186
REMARK   81  A    between atoms: _186  and  _187
REMARK   82  A    between atoms: _190  and  _192
REMARK   83  A    between atoms: _192  and  _193
REMARK   84  A    between atoms: _192  and  _195
REMARK   85  A    between atoms: _198  and  _200
REMARK   86  A    between atoms: _200  and  _201
REMARK   87  A    between atoms: _200  and  _203
REMARK   88  A    between atoms: _203  and  _204
REMARK   89  A    between atoms: _207  and  _209
REMARK   90  A    between atoms: _209  and  _210
REMARK   91  A    between atoms: _209  and  _212
REMARK   92  A    between atoms: _212  and  _213
REMARK   93  A    between atoms: _217  and  _218
REMARK   94  A    between atoms: _223  and  _225
REMARK   95  A    between atoms: _225  and  _226
REMARK   96  A    between atoms: _225  and  _228
REMARK   97  A    between atoms: _231  and  _233
REMARK   98  A    between atoms: _233  and  _234
REMARK   99  A    between atoms: _233  and  _236
REMARK  100  A    between atoms: _236  and  _237
REMARK  101  A    between atoms: _242  and  _244
REMARK  102  A    between atoms: _244  and  _245
REMARK  103  A    between atoms: _244  and  _247
REMARK  104  A    between atoms: _247  and  _248
REMARK  105  A    between atoms: _251  and  _253
REMARK  106  A    between atoms: _253  and  _254
REMARK  107  A    between atoms: _253  and  _256
REMARK  108  A    between atoms: _256  and  _257
REMARK  109  A    between atoms: _260  and  _262
REMARK  110  A    between atoms: _262  and  _263
REMARK  111  A    between atoms: _265  and  _267
REMARK  112  A    between atoms: _267  and  _268
REMARK  113  A    between atoms: _267  and  _270
REMARK  114  A    between atoms: _270  and  _271
REMARK  115  A    between atoms: _271  and  _272
REMARK  116  A    between atoms: _272  and  _273
REMARK  117  A    between atoms: _282  and  _284
REMARK  118  A    between atoms: _284  and  _285
REMARK  119  A    between atoms: _284  and  _287
REMARK  120  A    between atoms: _287  and  _288
REMARK  121  A    between atoms: _293  and  _295
REMARK  122  A    between atoms: _295  and  _296
REMARK  123  A    between atoms: _295  and  _298
REMARK  124  A    between atoms: _298  and  _299
REMARK  125  A    between atoms: _299  and  _300
REMARK  126  A    between atoms: _300  and  _301
REMARK  127  A    between atoms: _310  and  _312
REMARK  128  A    between atoms: _312  and  _313
REMARK  129  A    between atoms: _312  and  _315
REMARK  130  A    between atoms: _315  and  _316
REMARK  131  A    between atoms: _319  and  _321
REMARK  132  A    between atoms: _321  and  _322
REMARK  133  A    between atoms: _321  and  _324
REMARK  134  A    between atoms: _324  and  _325
REMARK  135  A    between atoms: _328  and  _330
REMARK  136  A    between atoms: _330  and  _331
REMARK  137  A    between atoms: _330  and  _333
REMARK  138  A    between atoms: _333  and  _334
REMARK  139  A    between atoms: _337  and  _339
REMARK  140  A    between atoms: _339  and  _340
REMARK  141  A    between atoms: _339  and  _342
REMARK  142  A    between atoms: _342  and  _343
REMARK  143  A    between atoms: _346  and  _348
REMARK  144  A    between atoms: _348  and  _349
REMARK  145  A    between atoms: _348  and  _351
REMARK  146  A    between atoms: _351  and  _352
REMARK  147  A    between atoms: _355  and  _357
REMARK  148  A    between atoms: _357  and  _358
REMARK  149  A    between atoms: _360  and  _362
REMARK  150  A    between atoms: _362  and  _363
REMARK  151  A    between atoms: _366  and  _368
REMARK  152  A    between atoms: _368  and  _369
REMARK  153  A    between atoms: _368  and  _371
REMARK  154  A    between atoms: _371  and  _372
REMARK  155  A    between atoms: _375  and  _377
REMARK  156  A    between atoms: _377  and  _378
REMARK  157  A    between atoms: _377  and  _380
REMARK  158  A    between atoms: _380  and  _381
REMARK  159  A    between atoms: _384  and  _386
REMARK  160  A    between atoms: _386  and  _387
REMARK  161  A    between atoms: _386  and  _389
REMARK  162  A    between atoms: _389  and  _390
REMARK  163  A    between atoms: _393  and  _395
REMARK  164  A    between atoms: _395  and  _396
REMARK  165  A    between atoms: _395  and  _398
REMARK  166  A    between atoms: _401  and  _403
REMARK  167  A    between atoms: _403  and  _404
REMARK  168  A    between atoms: _403  and  _406
REMARK  169  A    between atoms: _406  and  _407
REMARK  170  A    between atoms: _407  and  _408
REMARK  171  A    between atoms: _408  and  _409
REMARK  172  A    between atoms: _409  and  _410
REMARK  173  A    between atoms: _414  and  _416
REMARK  174  A    between atoms: _416  and  _417
REMARK  175  A    between atoms: _416  and  _419
REMARK  176  A    between atoms: _419  and  _420
REMARK  177  A    between atoms: _420  and  _421
REMARK  178  A    between atoms: _423  and  _425
REMARK  179  A    between atoms: _425  and  _426
REMARK  180  A    between atoms: _425  and  _428
REMARK  181  A    between atoms: _428  and  _429
REMARK  182  A    between atoms: _432  and  _434
REMARK  183  A    between atoms: _434  and  _435
REMARK  184  A    between atoms: _437  and  _439
REMARK  185  A    between atoms: _439  and  _440
REMARK  186  A    between atoms: _442  and  _444
REMARK  187  A    between atoms: _444  and  _445
REMARK  188  A    between atoms: _444  and  _447
REMARK  189  A    between atoms: _447  and  _448
REMARK  190  A    between atoms: _451  and  _453
REMARK  191  A    between atoms: _453  and  _454
REMARK  192  A    between atoms: _456  and  _458
REMARK  193  A    between atoms: _458  and  _459
REMARK  194  A    between atoms: _461  and  _463
REMARK  195  A    between atoms: _463  and  _464
REMARK  196  A    between atoms: _463  and  _466
REMARK  197  A    between atoms: _466  and  _467
REMARK  198  A    between atoms: _473  and  _475
REMARK  199  A    between atoms: _475  and  _476
REMARK  200  A    between atoms: _475  and  _478
REMARK  201  A    between atoms: _478  and  _479
REMARK  202  A    between atoms: _482  and  _484
REMARK  203  A    between atoms: _484  and  _485
REMARK  204  A    between atoms: _484  and  _487
REMARK  205  A    between atoms: _490  and  _492
REMARK  206  A    between atoms: _492  and  _493
REMARK  207  A    between atoms: _492  and  _495
REMARK  208  A    between atoms: _495  and  _496
REMARK  209  A    between atoms: _499  and  _501
REMARK  210  A    between atoms: _501  and  _502
REMARK  211  A    between atoms: _501  and  _504
REMARK  212  A    between atoms: _504  and  _505
REMARK  213  A    between atoms: _509  and  _510
REMARK  214  A    between atoms: _515  and  _517
REMARK  215  A    between atoms: _517  and  _518
REMARK  216  A    between atoms: _517  and  _520
REMARK  217  A    between atoms: _523  and  _525
REMARK  218  A    between atoms: _525  and  _526
REMARK  219  A    between atoms: _525  and  _528
REMARK  220  A    between atoms: _528  and  _529
REMARK  221  A    between atoms: _534  and  _536
REMARK  222  A    between atoms: _536  and  _537
REMARK  223  A    between atoms: _536  and  _539
REMARK  224  A    between atoms: _539  and  _540
REMARK  225  A    between atoms: _543  and  _545
REMARK  226  A    between atoms: _545  and  _546
REMARK  227  A    between atoms: _545  and  _548
REMARK  228  A    between atoms: _548  and  _549
REMARK  229  A    between atoms: _552  and  _554
REMARK  230  A    between atoms: _554  and  _555
REMARK  231  A    between atoms: _557  and  _559
REMARK  232  A    between atoms: _559  and  _560
REMARK  233  A    between atoms: _559  and  _562
REMARK  234  A    between atoms: _562  and  _563
REMARK  235  A    between atoms: _563  and  _564
REMARK  236  A    between atoms: _564  and  _565
REMARK  237  A    between atoms: _574  and  _576
REMARK  238  A    between atoms: _576  and  _577
REMARK  239  A    between atoms: _576  and  _579
REMARK  240  A    between atoms: _579  and  _580
REMARK                            x       y       z     vdW  Elec       q    Type
REMARK                         _______ _______ _______ _____ _____    ______ ____
ROOT
ATOM      1  O   HOH     1       4.303  18.968  22.902  0.00  0.00    +0.000 OA
ENDROOT
TORSDOF 0
REMARK  Name = ../refined-set-2016/3kdc/3kdc_pocket.pdb
REMARK  240 active torsions:
REMARK  status: ('A' for Active; 'I' for Inactive)
REMARK    1  A    between atoms: _1  and  _3
REMARK    2  A    between atoms: _3  and  _4
REMARK    3  A    between atoms: _3  and  _6
REMARK    4  A    between atoms: _6  and  _7
REMARK    5  A    between atoms: _7  and  _8
REMARK    6  A    between atoms: _8  and  _9
REMARK    7  A    between atoms: _18  and  _20
REMARK    8  A    between atoms: _20  and  _21
REMARK    9  A    between atoms: _20  and  _23
REMARK   10  A    between atoms: _23  and  _24
REMARK   11  A    between atoms: _27  and  _29
REMARK   12  A    between atoms: _29  and  _30
REMARK   13  A    between atoms: _29  and  _32
REMARK   14  A    between atoms: _32  and  _33
REMARK   15  A    between atoms: _36  and  _38
REMARK   16  A    between atoms: _38  and  _39
REMARK   17  A    between atoms: _38  and  _41
REMARK   18  A    between atoms: _41  and  _42
REMARK   19  A    between atoms: _45  and  _47
REMARK   20  A    between atoms: _47  and  _48
REMARK   21  A    between atoms: _47  and  _50
REMARK   22  A    between atoms: _50  and  _51
REMARK   23  A    between atoms: _54  and  _56
REMARK   24  A    between atoms: _56  and  _57
REMARK   25  A    between atoms: _59  and  _61
REMARK   26  A    between atoms: _61  and  _62
REMARK   27  A    between atoms: _65  and  _67
REMARK   28  A    between atoms: _67  and  _68
REMARK   29  A    between atoms: _67  and  _70
REMARK   30  A    between atoms: _70  and  _71
REMARK   31  A    between atoms: _74  and  _76
REMARK   32  A    between atoms: _76  and  _77
REMARK   33  A    between atoms: _76  and  _79
REMARK   34  A    between atoms: _79  and  _80
REMARK   35  A    between atoms: _83  and  _85
REMARK   36  A    between atoms: _85  and  _86
REMARK   37  A    between atoms: _85  and  _88
REMARK   38  A    between atoms: _88  and  _89
REMARK   39  A    between atoms: _92  and  _94
REMARK   40  A    between atoms: _94  and  _95
REMARK   41  A    between atoms: _94  and  _97
REMARK   42  A    between atoms: _100  and  _102
REMARK   43  A    between atoms: _102  and  _103
REMARK   44  A    between atoms: _102  and  _105
REMARK   45  A    between atoms: _105  and  _106
REMARK   46  A    between atoms: _109  and  _111
REMARK   47  A    between atoms: _111  and  _112
REMARK   48  A    between atoms: _111  and  _114
REMARK   49  A    between atoms: _114  and  _115
REMARK   50  A    between atoms: _115  and  _116
REMARK   51  A    between atoms: _116  and  _117
REMARK   52  A    between atoms: _117  and  _118
REMARK   53  A    between atoms: _122  and  _124
REMARK   54  A    between atoms: _124  and  _125
REMARK   55  A    between atoms: _124  and  _127
REMARK   56  A    between atoms: _127  and  _128
REMARK   57  A    between atoms: _128  and  _129
REMARK   58  A    between atoms: _131  and  _133
REMARK   59  A    between atoms: _133  and  _134
REMARK   60  A    between atoms: _133  and  _136
REMARK   61  A    between atoms: _136  and  _137
REMARK   62  A    between atoms: _140  and  _142
REMARK   63  A    between atoms: _142  and  _143
REMARK   64  A    between atoms: _145  and  _147
REMARK   65  A    between atoms: _147  and  _148
REMARK   66  A    between atoms: _150  and  _152
REMARK   67  A    between atoms: _152  and  _153
REMARK   68  A    between atoms: _152  and  _155
REMARK   69  A    between atoms: _155  and  _156
REMARK   70  A    between atoms: _159  and  _161
REMARK   71  A    between atoms: _161  and  _162
REMARK   72  A    between atoms: _164  and  _166
REMARK   73  A    between atoms: _166  and  _167
REMARK   74  A    between atoms: _169  and  _171
REMARK   75  A    between atoms: _171  and  _172
REMARK   76  A    between atoms: _171  and  _174
REMARK   77  A    between atoms: _174  and  _175
REMARK   78  A    between atoms: _181  and  _183
REMARK   79  A    between atoms: _183  and  _184
REMARK   80  A    between atoms: _183  and  _186
REMARK   81  A    between atoms: _186  and  _187
REMARK   82  A    between atoms: _190  and  _192
REMARK   83  A    between atoms: _192  and  _193
REMARK   84  A    between atoms: _192  and  _195
REMARK   85  A    between atoms: _198  and  _200
REMARK   86  A    between atoms: _200  and  _201
REMARK   87  A    between atoms: _200  and  _203
REMARK   88  A    between atoms: _203  and  _204
REMARK   89  A    between atoms: _207  and  _209
REMARK   90  A    between atoms: _209  and  _210
REMARK   91  A    between atoms: _209  and  _212
REMARK   92  A    between atoms: _212  and  _213
REMARK   93  A    between atoms: _217  and  _218
REMARK   94  A    between atoms: _223  and  _225
REMARK   95  A    between atoms: _225  and  _226
REMARK   96  A    between atoms: _225  and  _228
REMARK   97  A    between atoms: _231  and  _233
REMARK   98  A    between atoms: _233  and  _234
REMARK   99  A    between atoms: _233  and  _236
REMARK  100  A    between atoms: _236  and  _237
REMARK  101  A    between atoms: _242  and  _244
REMARK  102  A    between atoms: _244  and  _245
REMARK  103  A    between atoms: _244  and  _247
REMARK  104  A    between atoms: _247  and  _248
REMARK  105  A    between atoms: _251  and  _253
REMARK  106  A    between atoms: _253  and  _254
REMARK  107  A    between atoms: _253  and  _256
REMARK  108  A    between atoms: _256  and  _257
REMARK  109  A    between atoms: _260  and  _262
REMARK  110  A    between atoms: _262  and  _263
REMARK  111  A    between atoms: _265  and  _267
REMARK  112  A    between atoms: _267  and  _268
REMARK  113  A    between atoms: _267  and  _270
REMARK  114  A    between atoms: _270  and  _271
REMARK  115  A    between atoms: _271  and  _272
REMARK  116  A    between atoms: _272  and  _273
REMARK  117  A    between atoms: _282  and  _284
REMARK  118  A    between atoms: _284  and  _285
REMARK  119  A    between atoms: _284  and  _287
REMARK  120  A    between atoms: _287  and  _288
REMARK  121  A    between atoms: _293  and  _295
REMARK  122  A    between atoms: _295  and  _296
REMARK  123  A    between atoms: _295  and  _298
REMARK  124  A    between atoms: _298  and  _299
REMARK  125  A    between atoms: _299  and  _300
REMARK  126  A    between atoms: _300  and  _301
REMARK  127  A    between atoms: _310  and  _312
REMARK  128  A    between atoms: _312  and  _313
REMARK  129  A    between atoms: _312  and  _315
REMARK  130  A    between atoms: _315  and  _316
REMARK  131  A    between atoms: _319  and  _321
REMARK  132  A    between atoms: _321  and  _322
REMARK  133  A    between atoms: _321  and  _324
REMARK  134  A    between atoms: _324  and  _325
REMARK  135  A    between atoms: _328  and  _330
REMARK  136  A    between atoms: _330  and  _331
REMARK  137  A    between atoms: _330  and  _333
REMARK  138  A    between atoms: _333  and  _334
REMARK  139  A    between atoms: _337  and  _339
REMARK  140  A    between atoms: _339  and  _340
REMARK  141  A    between atoms: _339  and  _342
REMARK  142  A    between atoms: _342  and  _343
REMARK  143  A    between atoms: _346  and  _348
REMARK  144  A    between atoms: _348  and  _349
REMARK  145  A    between atoms: _348  and  _351
REMARK  146  A    between atoms: _351  and  _352
REMARK  147  A    between atoms: _355  and  _357
REMARK  148  A    between atoms: _357  and  _358
REMARK  149  A    between atoms: _360  and  _362
REMARK  150  A    between atoms: _362  and  _363
REMARK  151  A    between atoms: _366  and  _368
REMARK  152  A    between atoms: _368  and  _369
REMARK  153  A    between atoms: _368  and  _371
REMARK  154  A    between atoms: _371  and  _372
REMARK  155  A    between atoms: _375  and  _377
REMARK  156  A    between atoms: _377  and  _378
REMARK  157  A    between atoms: _377  and  _380
REMARK  158  A    between atoms: _380  and  _381
REMARK  159  A    between atoms: _384  and  _386
REMARK  160  A    between atoms: _386  and  _387
REMARK  161  A    between atoms: _386  and  _389
REMARK  162  A    between atoms: _389  and  _390
REMARK  163  A    between atoms: _393  and  _395
REMARK  164  A    between atoms: _395  and  _396
REMARK  165  A    between atoms: _395  and  _398
REMARK  166  A    between atoms: _401  and  _403
REMARK  167  A    between atoms: _403  and  _404
REMARK  168  A    between atoms: _403  and  _406
REMARK  169  A    between atoms: _406  and  _407
REMARK  170  A    between atoms: _407  and  _408
REMARK  171  A    between atoms: _408  and  _409
REMARK  172  A    between atoms: _409  and  _410
REMARK  173  A    between atoms: _414  and  _416
REMARK  174  A    between atoms: _416  and  _417
REMARK  175  A    between atoms: _416  and  _419
REMARK  176  A    between atoms: _419  and  _420
REMARK  177  A    between atoms: _420  and  _421
REMARK  178  A    between atoms: _423  and  _425
REMARK  179  A    between atoms: _425  and  _426
REMARK  180  A    between atoms: _425  and  _428
REMARK  181  A    between atoms: _428  and  _429
REMARK  182  A    between atoms: _432  and  _434
REMARK  183  A    between atoms: _434  and  _435
REMARK  184  A    between atoms: _437  and  _439
REMARK  185  A    between atoms: _439  and  _440
REMARK  186  A    between atoms: _442  and  _444
REMARK  187  A    between atoms: _444  and  _445
REMARK  188  A    between atoms: _444  and  _447
REMARK  189  A    between atoms: _447  and  _448
REMARK  190  A    between atoms: _451  and  _453
REMARK  191  A    between atoms: _453  and  _454
REMARK  192  A    between atoms: _456  and  _458
REMARK  193  A    between atoms: _458  and  _459
REMARK  194  A    between atoms: _461  and  _463
REMARK  195  A    between atoms: _463  and  _464
REMARK  196  A    between atoms: _463  and  _466
REMARK  197  A    between atoms: _466  and  _467
REMARK  198  A    between atoms: _473  and  _475
REMARK  199  A    between atoms: _475  and  _476
REMARK  200  A    between atoms: _475  and  _478
REMARK  201  A    between atoms: _478  and  _479
REMARK  202  A    between atoms: _482  and  _484
REMARK  203  A    between atoms: _484  and  _485
REMARK  204  A    between atoms: _484  and  _487
REMARK  205  A    between atoms: _490  and  _492
REMARK  206  A    between atoms: _492  and  _493
REMARK  207  A    between atoms: _492  and  _495
REMARK  208  A    between atoms: _495  and  _496
REMARK  209  A    between atoms: _499  and  _501
REMARK  210  A    between atoms: _501  and  _502
REMARK  211  A    between atoms: _501  and  _504
REMARK  212  A    between atoms: _504  and  _505
REMARK  213  A    between atoms: _509  and  _510
REMARK  214  A    between atoms: _515  and  _517
REMARK  215  A    between atoms: _517  and  _518
REMARK  216  A    between atoms: _517  and  _520
REMARK  217  A    between atoms: _523  and  _525
REMARK  218  A    between atoms: _525  and  _526
REMARK  219  A    between atoms: _525  and  _528
REMARK  220  A    between atoms: _528  and  _529
REMARK  221  A    between atoms: _534  and  _536
REMARK  222  A    between atoms: _536  and  _537
REMARK  223  A    between atoms: _536  and  _539
REMARK  224  A    between atoms: _539  and  _540
REMARK  225  A    between atoms: _543  and  _545
REMARK  226  A    between atoms: _545  and  _546
REMARK  227  A    between atoms: _545  and  _548
REMARK  228  A    between atoms: _548  and  _549
REMARK  229  A    between atoms: _552  and  _554
REMARK  230  A    between atoms: _554  and  _555
REMARK  231  A    between atoms: _557  and  _559
REMARK  232  A    between atoms: _559  and  _560
REMARK  233  A    between atoms: _559  and  _562
REMARK  234  A    between atoms: _562  and  _563
REMARK  235  A    between atoms: _563  and  _564
REMARK  236  A    between atoms: _564  and  _565
REMARK  237  A    between atoms: _574  and  _576
REMARK  238  A    between atoms: _576  and  _577
REMARK  239  A    between atoms: _576  and  _579
REMARK  240  A    between atoms: _579  and  _580
REMARK                            x       y       z     vdW  Elec       q    Type
REMARK                         _______ _______ _______ _____ _____    ______ ____
ROOT
ATOM      1  O   HOH     1      19.335  17.407   9.432  0.00  0.00    +0.000 OA
ENDROOT
TORSDOF 0
REMARK  Name = ../refined-set-2016/3kdc/3kdc_pocket.pdb
REMARK  240 active torsions:
REMARK  status: ('A' for Active; 'I' for Inactive)
REMARK    1  A    between atoms: _1  and  _3
REMARK    2  A    between atoms: _3  and  _4
REMARK    3  A    between atoms: _3  and  _6
REMARK    4  A    between atoms: _6  and  _7
REMARK    5  A    between atoms: _7  and  _8
REMARK    6  A    between atoms: _8  and  _9
REMARK    7  A    between atoms: _18  and  _20
REMARK    8  A    between atoms: _20  and  _21
REMARK    9  A    between atoms: _20  and  _23
REMARK   10  A    between atoms: _23  and  _24
REMARK   11  A    between atoms: _27  and  _29
REMARK   12  A    between atoms: _29  and  _30
REMARK   13  A    between atoms: _29  and  _32
REMARK   14  A    between atoms: _32  and  _33
REMARK   15  A    between atoms: _36  and  _38
REMARK   16  A    between atoms: _38  and  _39
REMARK   17  A    between atoms: _38  and  _41
REMARK   18  A    between atoms: _41  and  _42
REMARK   19  A    between atoms: _45  and  _47
REMARK   20  A    between atoms: _47  and  _48
REMARK   21  A    between atoms: _47  and  _50
REMARK   22  A    between atoms: _50  and  _51
REMARK   23  A    between atoms: _54  and  _56
REMARK   24  A    between atoms: _56  and  _57
REMARK   25  A    between atoms: _59  and  _61
REMARK   26  A    between atoms: _61  and  _62
REMARK   27  A    between atoms: _65  and  _67
REMARK   28  A    between atoms: _67  and  _68
REMARK   29  A    between atoms: _67  and  _70
REMARK   30  A    between atoms: _70  and  _71
REMARK   31  A    between atoms: _74  and  _76
REMARK   32  A    between atoms: _76  and  _77
REMARK   33  A    between atoms: _76  and  _79
REMARK   34  A    between atoms: _79  and  _80
REMARK   35  A    between atoms: _83  and  _85
REMARK   36  A    between atoms: _85  and  _86
REMARK   37  A    between atoms: _85  and  _88
REMARK   38  A    between atoms: _88  and  _89
REMARK   39  A    between atoms: _92  and  _94
REMARK   40  A    between atoms: _94  and  _95
REMARK   41  A    between atoms: _94  and  _97
REMARK   42  A    between atoms: _100  and  _102
REMARK   43  A    between atoms: _102  and  _103
REMARK   44  A    between atoms: _102  and  _105
REMARK   45  A    between atoms: _105  and  _106
REMARK   46  A    between atoms: _109  and  _111
REMARK   47  A    between atoms: _111  and  _112
REMARK   48  A    between atoms: _111  and  _114
REMARK   49  A    between atoms: _114  and  _115
REMARK   50  A    between atoms: _115  and  _116
REMARK   51  A    between atoms: _116  and  _117
REMARK   52  A    between atoms: _117  and  _118
REMARK   53  A    between atoms: _122  and  _124
REMARK   54  A    between atoms: _124  and  _125
REMARK   55  A    between atoms: _124  and  _127
REMARK   56  A    between atoms: _127  and  _128
REMARK   57  A    between atoms: _128  and  _129
REMARK   58  A    between atoms: _131  and  _133
REMARK   59  A    between atoms: _133  and  _134
REMARK   60  A    between atoms: _133  and  _136
REMARK   61  A    between atoms: _136  and  _137
REMARK   62  A    between atoms: _140  and  _142
REMARK   63  A    between atoms: _142  and  _143
REMARK   64  A    between atoms: _145  and  _147
REMARK   65  A    between atoms: _147  and  _148
REMARK   66  A    between atoms: _150  and  _152
REMARK   67  A    between atoms: _152  and  _153
REMARK   68  A    between atoms: _152  and  _155
REMARK   69  A    between atoms: _155  and  _156
REMARK   70  A    between atoms: _159  and  _161
REMARK   71  A    between atoms: _161  and  _162
REMARK   72  A    between atoms: _164  and  _166
REMARK   73  A    between atoms: _166  and  _167
REMARK   74  A    between atoms: _169  and  _171
REMARK   75  A    between atoms: _171  and  _172
REMARK   76  A    between atoms: _171  and  _174
REMARK   77  A    between atoms: _174  and  _175
REMARK   78  A    between atoms: _181  and  _183
REMARK   79  A    between atoms: _183  and  _184
REMARK   80  A    between atoms: _183  and  _186
REMARK   81  A    between atoms: _186  and  _187
REMARK   82  A    between atoms: _190  and  _192
REMARK   83  A    between atoms: _192  and  _193
REMARK   84  A    between atoms: _192  and  _195
REMARK   85  A    between atoms: _198  and  _200
REMARK   86  A    between atoms: _200  and  _201
REMARK   87  A    between atoms: _200  and  _203
REMARK   88  A    between atoms: _203  and  _204
REMARK   89  A    between atoms: _207  and  _209
REMARK   90  A    between atoms: _209  and  _210
REMARK   91  A    between atoms: _209  and  _212
REMARK   92  A    between atoms: _212  and  _213
REMARK   93  A    between atoms: _217  and  _218
REMARK   94  A    between atoms: _223  and  _225
REMARK   95  A    between atoms: _225  and  _226
REMARK   96  A    between atoms: _225  and  _228
REMARK   97  A    between atoms: _231  and  _233
REMARK   98  A    between atoms: _233  and  _234
REMARK   99  A    between atoms: _233  and  _236
REMARK  100  A    between atoms: _236  and  _237
REMARK  101  A    between atoms: _242  and  _244
REMARK  102  A    between atoms: _244  and  _245
REMARK  103  A    between atoms: _244  and  _247
REMARK  104  A    between atoms: _247  and  _248
REMARK  105  A    between atoms: _251  and  _253
REMARK  106  A    between atoms: _253  and  _254
REMARK  107  A    between atoms: _253  and  _256
REMARK  108  A    between atoms: _256  and  _257
REMARK  109  A    between atoms: _260  and  _262
REMARK  110  A    between atoms: _262  and  _263
REMARK  111  A    between atoms: _265  and  _267
REMARK  112  A    between atoms: _267  and  _268
REMARK  113  A    between atoms: _267  and  _270
REMARK  114  A    between atoms: _270  and  _271
REMARK  115  A    between atoms: _271  and  _272
REMARK  116  A    between atoms: _272  and  _273
REMARK  117  A    between atoms: _282  and  _284
REMARK  118  A    between atoms: _284  and  _285
REMARK  119  A    between atoms: _284  and  _287
REMARK  120  A    between atoms: _287  and  _288
REMARK  121  A    between atoms: _293  and  _295
REMARK  122  A    between atoms: _295  and  _296
REMARK  123  A    between atoms: _295  and  _298
REMARK  124  A    between atoms: _298  and  _299
REMARK  125  A    between atoms: _299  and  _300
REMARK  126  A    between atoms: _300  and  _301
REMARK  127  A    between atoms: _310  and  _312
REMARK  128  A    between atoms: _312  and  _313
REMARK  129  A    between atoms: _312  and  _315
REMARK  130  A    between atoms: _315  and  _316
REMARK  131  A    between atoms: _319  and  _321
REMARK  132  A    between atoms: _321  and  _322
REMARK  133  A    between atoms: _321  and  _324
REMARK  134  A    between atoms: _324  and  _325
REMARK  135  A    between atoms: _328  and  _330
REMARK  136  A    between atoms: _330  and  _331
REMARK  137  A    between atoms: _330  and  _333
REMARK  138  A    between atoms: _333  and  _334
REMARK  139  A    between atoms: _337  and  _339
REMARK  140  A    between atoms: _339  and  _340
REMARK  141  A    between atoms: _339  and  _342
REMARK  142  A    between atoms: _342  and  _343
REMARK  143  A    between atoms: _346  and  _348
REMARK  144  A    between atoms: _348  and  _349
REMARK  145  A    between atoms: _348  and  _351
REMARK  146  A    between atoms: _351  and  _352
REMARK  147  A    between atoms: _355  and  _357
REMARK  148  A    between atoms: _357  and  _358
REMARK  149  A    between atoms: _360  and  _362
REMARK  150  A    between atoms: _362  and  _363
REMARK  151  A    between atoms: _366  and  _368
REMARK  152  A    between atoms: _368  and  _369
REMARK  153  A    between atoms: _368  and  _371
REMARK  154  A    between atoms: _371  and  _372
REMARK  155  A    between atoms: _375  and  _377
REMARK  156  A    between atoms: _377  and  _378
REMARK  157  A    between atoms: _377  and  _380
REMARK  158  A    between atoms: _380  and  _381
REMARK  159  A    between atoms: _384  and  _386
REMARK  160  A    between atoms: _386  and  _387
REMARK  161  A    between atoms: _386  and  _389
REMARK  162  A    between atoms: _389  and  _390
REMARK  163  A    between atoms: _393  and  _395
REMARK  164  A    between atoms: _395  and  _396
REMARK  165  A    between atoms: _395  and  _398
REMARK  166  A    between atoms: _401  and  _403
REMARK  167  A    between atoms: _403  and  _404
REMARK  168  A    between atoms: _403  and  _406
REMARK  169  A    between atoms: _406  and  _407
REMARK  170  A    between atoms: _407  and  _408
REMARK  171  A    between atoms: _408  and  _409
REMARK  172  A    between atoms: _409  and  _410
REMARK  173  A    between atoms: _414  and  _416
REMARK  174  A    between atoms: _416  and  _417
REMARK  175  A    between atoms: _416  and  _419
REMARK  176  A    between atoms: _419  and  _420
REMARK  177  A    between atoms: _420  and  _421
REMARK  178  A    between atoms: _423  and  _425
REMARK  179  A    between atoms: _425  and  _426
REMARK  180  A    between atoms: _425  and  _428
REMARK  181  A    between atoms: _428  and  _429
REMARK  182  A    between atoms: _432  and  _434
REMARK  183  A    between atoms: _434  and  _435
REMARK  184  A    between atoms: _437  and  _439
REMARK  185  A    between atoms: _439  and  _440
REMARK  186  A    between atoms: _442  and  _444
REMARK  187  A    between atoms: _444  and  _445
REMARK  188  A    between atoms: _444  and  _447
REMARK  189  A    between atoms: _447  and  _448
REMARK  190  A    between atoms: _451  and  _453
REMARK  191  A    between atoms: _453  and  _454
REMARK  192  A    between atoms: _456  and  _458
REMARK  193  A    between atoms: _458  and  _459
REMARK  194  A    between atoms: _461  and  _463
REMARK  195  A    between atoms: _463  and  _464
REMARK  196  A    between atoms: _463  and  _466
REMARK  197  A    between atoms: _466  and  _467
REMARK  198  A    between atoms: _473  and  _475
REMARK  199  A    between atoms: _475  and  _476
REMARK  200  A    between atoms: _475  and  _478
REMARK  201  A    between atoms: _478  and  _479
REMARK  202  A    between atoms: _482  and  _484
REMARK  203  A    between atoms: _484  and  _485
REMARK  204  A    between atoms: _484  and  _487
REMARK  205  A    between atoms: _490  and  _492
REMARK  206  A    between atoms: _492  and  _493
REMARK  207  A    between atoms: _492  and  _495
REMARK  208  A    between atoms: _495  and  _496
REMARK  209  A    between atoms: _499  and  _501
REMARK  210  A    between atoms: _501  and  _502
REMARK  211  A    between atoms: _501  and  _504
REMARK  212  A    between atoms: _504  and  _505
REMARK  213  A    between atoms: _509  and  _510
REMARK  214  A    between atoms: _515  and  _517
REMARK  215  A    between atoms: _517  and  _518
REMARK  216  A    between atoms: _517  and  _520
REMARK  217  A    between atoms: _523  and  _525
REMARK  218  A    between atoms: _525  and  _526
REMARK  219  A    between atoms: _525  and  _528
REMARK  220  A    between atoms: _528  and  _529
REMARK  221  A    between atoms: _534  and  _536
REMARK  222  A    between atoms: _536  and  _537
REMARK  223  A    between atoms: _536  and  _539
REMARK  224  A    between atoms: _539  and  _540
REMARK  225  A    between atoms: _543  and  _545
REMARK  226  A    between atoms: _545  and  _546
REMARK  227  A    between atoms: _545  and  _548
REMARK  228  A    between atoms: _548  and  _549
REMARK  229  A    between atoms: _552  and  _554
REMARK  230  A    between atoms: _554  and  _555
REMARK  231  A    between atoms: _557  and  _559
REMARK  232  A    between atoms: _559  and  _560
REMARK  233  A    between atoms: _559  and  _562
REMARK  234  A    between atoms: _562  and  _563
REMARK  235  A    between atoms: _563  and  _564
REMARK  236  A    between atoms: _564  and  _565
REMARK  237  A    between atoms: _574  and  _576
REMARK  238  A    between atoms: _576  and  _577
REMARK  239  A    between atoms: _576  and  _579
REMARK  240  A    between atoms: _579  and  _580
REMARK                            x       y       z     vdW  Elec       q    Type
REMARK                         _______ _______ _______ _____ _____    ______ ____
ROOT
ATOM      1  O   HOH     1      11.714  16.770  14.081  0.00  0.00    +0.000 OA
ENDROOT
TORSDOF 0
REMARK  Name = ../refined-set-2016/3kdc/3kdc_pocket.pdb
REMARK  240 active torsions:
REMARK  status: ('A' for Active; 'I' for Inactive)
REMARK    1  A    between atoms: _1  and  _3
REMARK    2  A    between atoms: _3  and  _4
REMARK    3  A    between atoms: _3  and  _6
REMARK    4  A    between atoms: _6  and  _7
REMARK    5  A    between atoms: _7  and  _8
REMARK    6  A    between atoms: _8  and  _9
REMARK    7  A    between atoms: _18  and  _20
REMARK    8  A    between atoms: _20  and  _21
REMARK    9  A    between atoms: _20  and  _23
REMARK   10  A    between atoms: _23  and  _24
REMARK   11  A    between atoms: _27  and  _29
REMARK   12  A    between atoms: _29  and  _30
REMARK   13  A    between atoms: _29  and  _32
REMARK   14  A    between atoms: _32  and  _33
REMARK   15  A    between atoms: _36  and  _38
REMARK   16  A    between atoms: _38  and  _39
REMARK   17  A    between atoms: _38  and  _41
REMARK   18  A    between atoms: _41  and  _42
REMARK   19  A    between atoms: _45  and  _47
REMARK   20  A    between atoms: _47  and  _48
REMARK   21  A    between atoms: _47  and  _50
REMARK   22  A    between atoms: _50  and  _51
REMARK   23  A    between atoms: _54  and  _56
REMARK   24  A    between atoms: _56  and  _57
REMARK   25  A    between atoms: _59  and  _61
REMARK   26  A    between atoms: _61  and  _62
REMARK   27  A    between atoms: _65  and  _67
REMARK   28  A    between atoms: _67  and  _68
REMARK   29  A    between atoms: _67  and  _70
REMARK   30  A    between atoms: _70  and  _71
REMARK   31  A    between atoms: _74  and  _76
REMARK   32  A    between atoms: _76  and  _77
REMARK   33  A    between atoms: _76  and  _79
REMARK   34  A    between atoms: _79  and  _80
REMARK   35  A    between atoms: _83  and  _85
REMARK   36  A    between atoms: _85  and  _86
REMARK   37  A    between atoms: _85  and  _88
REMARK   38  A    between atoms: _88  and  _89
REMARK   39  A    between atoms: _92  and  _94
REMARK   40  A    between atoms: _94  and  _95
REMARK   41  A    between atoms: _94  and  _97
REMARK   42  A    between atoms: _100  and  _102
REMARK   43  A    between atoms: _102  and  _103
REMARK   44  A    between atoms: _102  and  _105
REMARK   45  A    between atoms: _105  and  _106
REMARK   46  A    between atoms: _109  and  _111
REMARK   47  A    between atoms: _111  and  _112
REMARK   48  A    between atoms: _111  and  _114
REMARK   49  A    between atoms: _114  and  _115
REMARK   50  A    between atoms: _115  and  _116
REMARK   51  A    between atoms: _116  and  _117
REMARK   52  A    between atoms: _117  and  _118
REMARK   53  A    between atoms: _122  and  _124
REMARK   54  A    between atoms: _124  and  _125
REMARK   55  A    between atoms: _124  and  _127
REMARK   56  A    between atoms: _127  and  _128
REMARK   57  A    between atoms: _128  and  _129
REMARK   58  A    between atoms: _131  and  _133
REMARK   59  A    between atoms: _133  and  _134
REMARK   60  A    between atoms: _133  and  _136
REMARK   61  A    between atoms: _136  and  _137
REMARK   62  A    between atoms: _140  and  _142
REMARK   63  A    between atoms: _142  and  _143
REMARK   64  A    between atoms: _145  and  _147
REMARK   65  A    between atoms: _147  and  _148
REMARK   66  A    between atoms: _150  and  _152
REMARK   67  A    between atoms: _152  and  _153
REMARK   68  A    between atoms: _152  and  _155
REMARK   69  A    between atoms: _155  and  _156
REMARK   70  A    between atoms: _159  and  _161
REMARK   71  A    between atoms: _161  and  _162
REMARK   72  A    between atoms: _164  and  _166
REMARK   73  A    between atoms: _166  and  _167
REMARK   74  A    between atoms: _169  and  _171
REMARK   75  A    between atoms: _171  and  _172
REMARK   76  A    between atoms: _171  and  _174
REMARK   77  A    between atoms: _174  and  _175
REMARK   78  A    between atoms: _181  and  _183
REMARK   79  A    between atoms: _183  and  _184
REMARK   80  A    between atoms: _183  and  _186
REMARK   81  A    between atoms: _186  and  _187
REMARK   82  A    between atoms: _190  and  _192
REMARK   83  A    between atoms: _192  and  _193
REMARK   84  A    between atoms: _192  and  _195
REMARK   85  A    between atoms: _198  and  _200
REMARK   86  A    between atoms: _200  and  _201
REMARK   87  A    between atoms: _200  and  _203
REMARK   88  A    between atoms: _203  and  _204
REMARK   89  A    between atoms: _207  and  _209
REMARK   90  A    between atoms: _209  and  _210
REMARK   91  A    between atoms: _209  and  _212
REMARK   92  A    between atoms: _212  and  _213
REMARK   93  A    between atoms: _217  and  _218
REMARK   94  A    between atoms: _223  and  _225
REMARK   95  A    between atoms: _225  and  _226
REMARK   96  A    between atoms: _225  and  _228
REMARK   97  A    between atoms: _231  and  _233
REMARK   98  A    between atoms: _233  and  _234
REMARK   99  A    between atoms: _233  and  _236
REMARK  100  A    between atoms: _236  and  _237
REMARK  101  A    between atoms: _242  and  _244
REMARK  102  A    between atoms: _244  and  _245
REMARK  103  A    between atoms: _244  and  _247
REMARK  104  A    between atoms: _247  and  _248
REMARK  105  A    between atoms: _251  and  _253
REMARK  106  A    between atoms: _253  and  _254
REMARK  107  A    between atoms: _253  and  _256
REMARK  108  A    between atoms: _256  and  _257
REMARK  109  A    between atoms: _260  and  _262
REMARK  110  A    between atoms: _262  and  _263
REMARK  111  A    between atoms: _265  and  _267
REMARK  112  A    between atoms: _267  and  _268
REMARK  113  A    between atoms: _267  and  _270
REMARK  114  A    between atoms: _270  and  _271
REMARK  115  A    between atoms: _271  and  _272
REMARK  116  A    between atoms: _272  and  _273
REMARK  117  A    between atoms: _282  and  _284
REMARK  118  A    between atoms: _284  and  _285
REMARK  119  A    between atoms: _284  and  _287
REMARK  120  A    between atoms: _287  and  _288
REMARK  121  A    between atoms: _293  and  _295
REMARK  122  A    between atoms: _295  and  _296
REMARK  123  A    between atoms: _295  and  _298
REMARK  124  A    between atoms: _298  and  _299
REMARK  125  A    between atoms: _299  and  _300
REMARK  126  A    between atoms: _300  and  _301
REMARK  127  A    between atoms: _310  and  _312
REMARK  128  A    between atoms: _312  and  _313
REMARK  129  A    between atoms: _312  and  _315
REMARK  130  A    between atoms: _315  and  _316
REMARK  131  A    between atoms: _319  and  _321
REMARK  132  A    between atoms: _321  and  _322
REMARK  133  A    between atoms: _321  and  _324
REMARK  134  A    between atoms: _324  and  _325
REMARK  135  A    between atoms: _328  and  _330
REMARK  136  A    between atoms: _330  and  _331
REMARK  137  A    between atoms: _330  and  _333
REMARK  138  A    between atoms: _333  and  _334
REMARK  139  A    between atoms: _337  and  _339
REMARK  140  A    between atoms: _339  and  _340
REMARK  141  A    between atoms: _339  and  _342
REMARK  142  A    between atoms: _342  and  _343
REMARK  143  A    between atoms: _346  and  _348
REMARK  144  A    between atoms: _348  and  _349
REMARK  145  A    between atoms: _348  and  _351
REMARK  146  A    between atoms: _351  and  _352
REMARK  147  A    between atoms: _355  and  _357
REMARK  148  A    between atoms: _357  and  _358
REMARK  149  A    between atoms: _360  and  _362
REMARK  150  A    between atoms: _362  and  _363
REMARK  151  A    between atoms: _366  and  _368
REMARK  152  A    between atoms: _368  and  _369
REMARK  153  A    between atoms: _368  and  _371
REMARK  154  A    between atoms: _371  and  _372
REMARK  155  A    between atoms: _375  and  _377
REMARK  156  A    between atoms: _377  and  _378
REMARK  157  A    between atoms: _377  and  _380
REMARK  158  A    between atoms: _380  and  _381
REMARK  159  A    between atoms: _384  and  _386
REMARK  160  A    between atoms: _386  and  _387
REMARK  161  A    between atoms: _386  and  _389
REMARK  162  A    between atoms: _389  and  _390
REMARK  163  A    between atoms: _393  and  _395
REMARK  164  A    between atoms: _395  and  _396
REMARK  165  A    between atoms: _395  and  _398
REMARK  166  A    between atoms: _401  and  _403
REMARK  167  A    between atoms: _403  and  _404
REMARK  168  A    between atoms: _403  and  _406
REMARK  169  A    between atoms: _406  and  _407
REMARK  170  A    between atoms: _407  and  _408
REMARK  171  A    between atoms: _408  and  _409
REMARK  172  A    between atoms: _409  and  _410
REMARK  173  A    between atoms: _414  and  _416
REMARK  174  A    between atoms: _416  and  _417
REMARK  175  A    between atoms: _416  and  _419
REMARK  176  A    between atoms: _419  and  _420
REMARK  177  A    between atoms: _420  and  _421
REMARK  178  A    between atoms: _423  and  _425
REMARK  179  A    between atoms: _425  and  _426
REMARK  180  A    between atoms: _425  and  _428
REMARK  181  A    between atoms: _428  and  _429
REMARK  182  A    between atoms: _432  and  _434
REMARK  183  A    between atoms: _434  and  _435
REMARK  184  A    between atoms: _437  and  _439
REMARK  185  A    between atoms: _439  and  _440
REMARK  186  A    between atoms: _442  and  _444
REMARK  187  A    between atoms: _444  and  _445
REMARK  188  A    between atoms: _444  and  _447
REMARK  189  A    between atoms: _447  and  _448
REMARK  190  A    between atoms: _451  and  _453
REMARK  191  A    between atoms: _453  and  _454
REMARK  192  A    between atoms: _456  and  _458
REMARK  193  A    between atoms: _458  and  _459
REMARK  194  A    between atoms: _461  and  _463
REMARK  195  A    between atoms: _463  and  _464
REMARK  196  A    between atoms: _463  and  _466
REMARK  197  A    between atoms: _466  and  _467
REMARK  198  A    between atoms: _473  and  _475
REMARK  199  A    between atoms: _475  and  _476
REMARK  200  A    between atoms: _475  and  _478
REMARK  201  A    between atoms: _478  and  _479
REMARK  202  A    between atoms: _482  and  _484
REMARK  203  A    between atoms: _484  and  _485
REMARK  204  A    between atoms: _484  and  _487
REMARK  205  A    between atoms: _490  and  _492
REMARK  206  A    between atoms: _492  and  _493
REMARK  207  A    between atoms: _492  and  _495
REMARK  208  A    between atoms: _495  and  _496
REMARK  209  A    between atoms: _499  and  _501
REMARK  210  A    between atoms: _501  and  _502
REMARK  211  A    between atoms: _501  and  _504
REMARK  212  A    between atoms: _504  and  _505
REMARK  213  A    between atoms: _509  and  _510
REMARK  214  A    between atoms: _515  and  _517
REMARK  215  A    between atoms: _517  and  _518
REMARK  216  A    between atoms: _517  and  _520
REMARK  217  A    between atoms: _523  and  _525
REMARK  218  A    between atoms: _525  and  _526
REMARK  219  A    between atoms: _525  and  _528
REMARK  220  A    between atoms: _528  and  _529
REMARK  221  A    between atoms: _534  and  _536
REMARK  222  A    between atoms: _536  and  _537
REMARK  223  A    between atoms: _536  and  _539
REMARK  224  A    between atoms: _539  and  _540
REMARK  225  A    between atoms: _543  and  _545
REMARK  226  A    between atoms: _545  and  _546
REMARK  227  A    between atoms: _545  and  _548
REMARK  228  A    between atoms: _548  and  _549
REMARK  229  A    between atoms: _552  and  _554
REMARK  230  A    between atoms: _554  and  _555
REMARK  231  A    between atoms: _557  and  _559
REMARK  232  A    between atoms: _559  and  _560
REMARK  233  A    between atoms: _559  and  _562
REMARK  234  A    between atoms: _562  and  _563
REMARK  235  A    between atoms: _563  and  _564
REMARK  236  A    between atoms: _564  and  _565
REMARK  237  A    between atoms: _574  and  _576
REMARK  238  A    between atoms: _576  and  _577
REMARK  239  A    between atoms: _576  and  _579
REMARK  240  A    between atoms: _579  and  _580
REMARK                            x       y       z     vdW  Elec       q    Type
REMARK                         _______ _______ _______ _____ _____    ______ ____
ROOT
ATOM      1  O   HOH     1       9.406  12.220  17.796  0.00  0.00    +0.000 OA
ENDROOT
TORSDOF 0
REMARK  Name = ../refined-set-2016/3kdc/3kdc_pocket.pdb
REMARK  240 active torsions:
REMARK  status: ('A' for Active; 'I' for Inactive)
REMARK    1  A    between atoms: _1  and  _3
REMARK    2  A    between atoms: _3  and  _4
REMARK    3  A    between atoms: _3  and  _6
REMARK    4  A    between atoms: _6  and  _7
REMARK    5  A    between atoms: _7  and  _8
REMARK    6  A    between atoms: _8  and  _9
REMARK    7  A    between atoms: _18  and  _20
REMARK    8  A    between atoms: _20  and  _21
REMARK    9  A    between atoms: _20  and  _23
REMARK   10  A    between atoms: _23  and  _24
REMARK   11  A    between atoms: _27  and  _29
REMARK   12  A    between atoms: _29  and  _30
REMARK   13  A    between atoms: _29  and  _32
REMARK   14  A    between atoms: _32  and  _33
REMARK   15  A    between atoms: _36  and  _38
REMARK   16  A    between atoms: _38  and  _39
REMARK   17  A    between atoms: _38  and  _41
REMARK   18  A    between atoms: _41  and  _42
REMARK   19  A    between atoms: _45  and  _47
REMARK   20  A    between atoms: _47  and  _48
REMARK   21  A    between atoms: _47  and  _50
REMARK   22  A    between atoms: _50  and  _51
REMARK   23  A    between atoms: _54  and  _56
REMARK   24  A    between atoms: _56  and  _57
REMARK   25  A    between atoms: _59  and  _61
REMARK   26  A    between atoms: _61  and  _62
REMARK   27  A    between atoms: _65  and  _67
REMARK   28  A    between atoms: _67  and  _68
REMARK   29  A    between atoms: _67  and  _70
REMARK   30  A    between atoms: _70  and  _71
REMARK   31  A    between atoms: _74  and  _76
REMARK   32  A    between atoms: _76  and  _77
REMARK   33  A    between atoms: _76  and  _79
REMARK   34  A    between atoms: _79  and  _80
REMARK   35  A    between atoms: _83  and  _85
REMARK   36  A    between atoms: _85  and  _86
REMARK   37  A    between atoms: _85  and  _88
REMARK   38  A    between atoms: _88  and  _89
REMARK   39  A    between atoms: _92  and  _94
REMARK   40  A    between atoms: _94  and  _95
REMARK   41  A    between atoms: _94  and  _97
REMARK   42  A    between atoms: _100  and  _102
REMARK   43  A    between atoms: _102  and  _103
REMARK   44  A    between atoms: _102  and  _105
REMARK   45  A    between atoms: _105  and  _106
REMARK   46  A    between atoms: _109  and  _111
REMARK   47  A    between atoms: _111  and  _112
REMARK   48  A    between atoms: _111  and  _114
REMARK   49  A    between atoms: _114  and  _115
REMARK   50  A    between atoms: _115  and  _116
REMARK   51  A    between atoms: _116  and  _117
REMARK   52  A    between atoms: _117  and  _118
REMARK   53  A    between atoms: _122  and  _124
REMARK   54  A    between atoms: _124  and  _125
REMARK   55  A    between atoms: _124  and  _127
REMARK   56  A    between atoms: _127  and  _128
REMARK   57  A    between atoms: _128  and  _129
REMARK   58  A    between atoms: _131  and  _133
REMARK   59  A    between atoms: _133  and  _134
REMARK   60  A    between atoms: _133  and  _136
REMARK   61  A    between atoms: _136  and  _137
REMARK   62  A    between atoms: _140  and  _142
REMARK   63  A    between atoms: _142  and  _143
REMARK   64  A    between atoms: _145  and  _147
REMARK   65  A    between atoms: _147  and  _148
REMARK   66  A    between atoms: _150  and  _152
REMARK   67  A    between atoms: _152  and  _153
REMARK   68  A    between atoms: _152  and  _155
REMARK   69  A    between atoms: _155  and  _156
REMARK   70  A    between atoms: _159  and  _161
REMARK   71  A    between atoms: _161  and  _162
REMARK   72  A    between atoms: _164  and  _166
REMARK   73  A    between atoms: _166  and  _167
REMARK   74  A    between atoms: _169  and  _171
REMARK   75  A    between atoms: _171  and  _172
REMARK   76  A    between atoms: _171  and  _174
REMARK   77  A    between atoms: _174  and  _175
REMARK   78  A    between atoms: _181  and  _183
REMARK   79  A    between atoms: _183  and  _184
REMARK   80  A    between atoms: _183  and  _186
REMARK   81  A    between atoms: _186  and  _187
REMARK   82  A    between atoms: _190  and  _192
REMARK   83  A    between atoms: _192  and  _193
REMARK   84  A    between atoms: _192  and  _195
REMARK   85  A    between atoms: _198  and  _200
REMARK   86  A    between atoms: _200  and  _201
REMARK   87  A    between atoms: _200  and  _203
REMARK   88  A    between atoms: _203  and  _204
REMARK   89  A    between atoms: _207  and  _209
REMARK   90  A    between atoms: _209  and  _210
REMARK   91  A    between atoms: _209  and  _212
REMARK   92  A    between atoms: _212  and  _213
REMARK   93  A    between atoms: _217  and  _218
REMARK   94  A    between atoms: _223  and  _225
REMARK   95  A    between atoms: _225  and  _226
REMARK   96  A    between atoms: _225  and  _228
REMARK   97  A    between atoms: _231  and  _233
REMARK   98  A    between atoms: _233  and  _234
REMARK   99  A    between atoms: _233  and  _236
REMARK  100  A    between atoms: _236  and  _237
REMARK  101  A    between atoms: _242  and  _244
REMARK  102  A    between atoms: _244  and  _245
REMARK  103  A    between atoms: _244  and  _247
REMARK  104  A    between atoms: _247  and  _248
REMARK  105  A    between atoms: _251  and  _253
REMARK  106  A    between atoms: _253  and  _254
REMARK  107  A    between atoms: _253  and  _256
REMARK  108  A    between atoms: _256  and  _257
REMARK  109  A    between atoms: _260  and  _262
REMARK  110  A    between atoms: _262  and  _263
REMARK  111  A    between atoms: _265  and  _267
REMARK  112  A    between atoms: _267  and  _268
REMARK  113  A    between atoms: _267  and  _270
REMARK  114  A    between atoms: _270  and  _271
REMARK  115  A    between atoms: _271  and  _272
REMARK  116  A    between atoms: _272  and  _273
REMARK  117  A    between atoms: _282  and  _284
REMARK  118  A    between atoms: _284  and  _285
REMARK  119  A    between atoms: _284  and  _287
REMARK  120  A    between atoms: _287  and  _288
REMARK  121  A    between atoms: _293  and  _295
REMARK  122  A    between atoms: _295  and  _296
REMARK  123  A    between atoms: _295  and  _298
REMARK  124  A    between atoms: _298  and  _299
REMARK  125  A    between atoms: _299  and  _300
REMARK  126  A    between atoms: _300  and  _301
REMARK  127  A    between atoms: _310  and  _312
REMARK  128  A    between atoms: _312  and  _313
REMARK  129  A    between atoms: _312  and  _315
REMARK  130  A    between atoms: _315  and  _316
REMARK  131  A    between atoms: _319  and  _321
REMARK  132  A    between atoms: _321  and  _322
REMARK  133  A    between atoms: _321  and  _324
REMARK  134  A    between atoms: _324  and  _325
REMARK  135  A    between atoms: _328  and  _330
REMARK  136  A    between atoms: _330  and  _331
REMARK  137  A    between atoms: _330  and  _333
REMARK  138  A    between atoms: _333  and  _334
REMARK  139  A    between atoms: _337  and  _339
REMARK  140  A    between atoms: _339  and  _340
REMARK  141  A    between atoms: _339  and  _342
REMARK  142  A    between atoms: _342  and  _343
REMARK  143  A    between atoms: _346  and  _348
REMARK  144  A    between atoms: _348  and  _349
REMARK  145  A    between atoms: _348  and  _351
REMARK  146  A    between atoms: _351  and  _352
REMARK  147  A    between atoms: _355  and  _357
REMARK  148  A    between atoms: _357  and  _358
REMARK  149  A    between atoms: _360  and  _362
REMARK  150  A    between atoms: _362  and  _363
REMARK  151  A    between atoms: _366  and  _368
REMARK  152  A    between atoms: _368  and  _369
REMARK  153  A    between atoms: _368  and  _371
REMARK  154  A    between atoms: _371  and  _372
REMARK  155  A    between atoms: _375  and  _377
REMARK  156  A    between atoms: _377  and  _378
REMARK  157  A    between atoms: _377  and  _380
REMARK  158  A    between atoms: _380  and  _381
REMARK  159  A    between atoms: _384  and  _386
REMARK  160  A    between atoms: _386  and  _387
REMARK  161  A    between atoms: _386  and  _389
REMARK  162  A    between atoms: _389  and  _390
REMARK  163  A    between atoms: _393  and  _395
REMARK  164  A    between atoms: _395  and  _396
REMARK  165  A    between atoms: _395  and  _398
REMARK  166  A    between atoms: _401  and  _403
REMARK  167  A    between atoms: _403  and  _404
REMARK  168  A    between atoms: _403  and  _406
REMARK  169  A    between atoms: _406  and  _407
REMARK  170  A    between atoms: _407  and  _408
REMARK  171  A    between atoms: _408  and  _409
REMARK  172  A    between atoms: _409  and  _410
REMARK  173  A    between atoms: _414  and  _416
REMARK  174  A    between atoms: _416  and  _417
REMARK  175  A    between atoms: _416  and  _419
REMARK  176  A    between atoms: _419  and  _420
REMARK  177  A    between atoms: _420  and  _421
REMARK  178  A    between atoms: _423  and  _425
REMARK  179  A    between atoms: _425  and  _426
REMARK  180  A    between atoms: _425  and  _428
REMARK  181  A    between atoms: _428  and  _429
REMARK  182  A    between atoms: _432  and  _434
REMARK  183  A    between atoms: _434  and  _435
REMARK  184  A    between atoms: _437  and  _439
REMARK  185  A    between atoms: _439  and  _440
REMARK  186  A    between atoms: _442  and  _444
REMARK  187  A    between atoms: _444  and  _445
REMARK  188  A    between atoms: _444  and  _447
REMARK  189  A    between atoms: _447  and  _448
REMARK  190  A    between atoms: _451  and  _453
REMARK  191  A    between atoms: _453  and  _454
REMARK  192  A    between atoms: _456  and  _458
REMARK  193  A    between atoms: _458  and  _459
REMARK  194  A    between atoms: _461  and  _463
REMARK  195  A    between atoms: _463  and  _464
REMARK  196  A    between atoms: _463  and  _466
REMARK  197  A    between atoms: _466  and  _467
REMARK  198  A    between atoms: _473  and  _475
REMARK  199  A    between atoms: _475  and  _476
REMARK  200  A    between atoms: _475  and  _478
REMARK  201  A    between atoms: _478  and  _479
REMARK  202  A    between atoms: _482  and  _484
REMARK  203  A    between atoms: _484  and  _485
REMARK  204  A    between atoms: _484  and  _487
REMARK  205  A    between atoms: _490  and  _492
REMARK  206  A    between atoms: _492  and  _493
REMARK  207  A    between atoms: _492  and  _495
REMARK  208  A    between atoms: _495  and  _496
REMARK  209  A    between atoms: _499  and  _501
REMARK  210  A    between atoms: _501  and  _502
REMARK  211  A    between atoms: _501  and  _504
REMARK  212  A    between atoms: _504  and  _505
REMARK  213  A    between atoms: _509  and  _510
REMARK  214  A    between atoms: _515  and  _517
REMARK  215  A    between atoms: _517  and  _518
REMARK  216  A    between atoms: _517  and  _520
REMARK  217  A    between atoms: _523  and  _525
REMARK  218  A    between atoms: _525  and  _526
REMARK  219  A    between atoms: _525  and  _528
REMARK  220  A    between atoms: _528  and  _529
REMARK  221  A    between atoms: _534  and  _536
REMARK  222  A    between atoms: _536  and  _537
REMARK  223  A    between atoms: _536  and  _539
REMARK  224  A    between atoms: _539  and  _540
REMARK  225  A    between atoms: _543  and  _545
REMARK  226  A    between atoms: _545  and  _546
REMARK  227  A    between atoms: _545  and  _548
REMARK  228  A    between atoms: _548  and  _549
REMARK  229  A    between atoms: _552  and  _554
REMARK  230  A    between atoms: _554  and  _555
REMARK  231  A    between atoms: _557  and  _559
REMARK  232  A    between atoms: _559  and  _560
REMARK  233  A    between atoms: _559  and  _562
REMARK  234  A    between atoms: _562  and  _563
REMARK  235  A    between atoms: _563  and  _564
REMARK  236  A    between atoms: _564  and  _565
REMARK  237  A    between atoms: _574  and  _576
REMARK  238  A    between atoms: _576  and  _577
REMARK  239  A    between atoms: _576  and  _579
REMARK  240  A    between atoms: _579  and  _580
REMARK                            x       y       z     vdW  Elec       q    Type
REMARK                         _______ _______ _______ _____ _____    ______ ____
ROOT
ATOM      1  O   HOH     1       6.705  15.743  25.558  0.00  0.00    +0.000 OA
ENDROOT
TORSDOF 0
REMARK  Name = ../refined-set-2016/3kdc/3kdc_pocket.pdb
REMARK  240 active torsions:
REMARK  status: ('A' for Active; 'I' for Inactive)
REMARK    1  A    between atoms: _1  and  _3
REMARK    2  A    between atoms: _3  and  _4
REMARK    3  A    between atoms: _3  and  _6
REMARK    4  A    between atoms: _6  and  _7
REMARK    5  A    between atoms: _7  and  _8
REMARK    6  A    between atoms: _8  and  _9
REMARK    7  A    between atoms: _18  and  _20
REMARK    8  A    between atoms: _20  and  _21
REMARK    9  A    between atoms: _20  and  _23
REMARK   10  A    between atoms: _23  and  _24
REMARK   11  A    between atoms: _27  and  _29
REMARK   12  A    between atoms: _29  and  _30
REMARK   13  A    between atoms: _29  and  _32
REMARK   14  A    between atoms: _32  and  _33
REMARK   15  A    between atoms: _36  and  _38
REMARK   16  A    between atoms: _38  and  _39
REMARK   17  A    between atoms: _38  and  _41
REMARK   18  A    between atoms: _41  and  _42
REMARK   19  A    between atoms: _45  and  _47
REMARK   20  A    between atoms: _47  and  _48
REMARK   21  A    between atoms: _47  and  _50
REMARK   22  A    between atoms: _50  and  _51
REMARK   23  A    between atoms: _54  and  _56
REMARK   24  A    between atoms: _56  and  _57
REMARK   25  A    between atoms: _59  and  _61
REMARK   26  A    between atoms: _61  and  _62
REMARK   27  A    between atoms: _65  and  _67
REMARK   28  A    between atoms: _67  and  _68
REMARK   29  A    between atoms: _67  and  _70
REMARK   30  A    between atoms: _70  and  _71
REMARK   31  A    between atoms: _74  and  _76
REMARK   32  A    between atoms: _76  and  _77
REMARK   33  A    between atoms: _76  and  _79
REMARK   34  A    between atoms: _79  and  _80
REMARK   35  A    between atoms: _83  and  _85
REMARK   36  A    between atoms: _85  and  _86
REMARK   37  A    between atoms: _85  and  _88
REMARK   38  A    between atoms: _88  and  _89
REMARK   39  A    between atoms: _92  and  _94
REMARK   40  A    between atoms: _94  and  _95
REMARK   41  A    between atoms: _94  and  _97
REMARK   42  A    between atoms: _100  and  _102
REMARK   43  A    between atoms: _102  and  _103
REMARK   44  A    between atoms: _102  and  _105
REMARK   45  A    between atoms: _105  and  _106
REMARK   46  A    between atoms: _109  and  _111
REMARK   47  A    between atoms: _111  and  _112
REMARK   48  A    between atoms: _111  and  _114
REMARK   49  A    between atoms: _114  and  _115
REMARK   50  A    between atoms: _115  and  _116
REMARK   51  A    between atoms: _116  and  _117
REMARK   52  A    between atoms: _117  and  _118
REMARK   53  A    between atoms: _122  and  _124
REMARK   54  A    between atoms: _124  and  _125
REMARK   55  A    between atoms: _124  and  _127
REMARK   56  A    between atoms: _127  and  _128
REMARK   57  A    between atoms: _128  and  _129
REMARK   58  A    between atoms: _131  and  _133
REMARK   59  A    between atoms: _133  and  _134
REMARK   60  A    between atoms: _133  and  _136
REMARK   61  A    between atoms: _136  and  _137
REMARK   62  A    between atoms: _140  and  _142
REMARK   63  A    between atoms: _142  and  _143
REMARK   64  A    between atoms: _145  and  _147
REMARK   65  A    between atoms: _147  and  _148
REMARK   66  A    between atoms: _150  and  _152
REMARK   67  A    between atoms: _152  and  _153
REMARK   68  A    between atoms: _152  and  _155
REMARK   69  A    between atoms: _155  and  _156
REMARK   70  A    between atoms: _159  and  _161
REMARK   71  A    between atoms: _161  and  _162
REMARK   72  A    between atoms: _164  and  _166
REMARK   73  A    between atoms: _166  and  _167
REMARK   74  A    between atoms: _169  and  _171
REMARK   75  A    between atoms: _171  and  _172
REMARK   76  A    between atoms: _171  and  _174
REMARK   77  A    between atoms: _174  and  _175
REMARK   78  A    between atoms: _181  and  _183
REMARK   79  A    between atoms: _183  and  _184
REMARK   80  A    between atoms: _183  and  _186
REMARK   81  A    between atoms: _186  and  _187
REMARK   82  A    between atoms: _190  and  _192
REMARK   83  A    between atoms: _192  and  _193
REMARK   84  A    between atoms: _192  and  _195
REMARK   85  A    between atoms: _198  and  _200
REMARK   86  A    between atoms: _200  and  _201
REMARK   87  A    between atoms: _200  and  _203
REMARK   88  A    between atoms: _203  and  _204
REMARK   89  A    between atoms: _207  and  _209
REMARK   90  A    between atoms: _209  and  _210
REMARK   91  A    between atoms: _209  and  _212
REMARK   92  A    between atoms: _212  and  _213
REMARK   93  A    between atoms: _217  and  _218
REMARK   94  A    between atoms: _223  and  _225
REMARK   95  A    between atoms: _225  and  _226
REMARK   96  A    between atoms: _225  and  _228
REMARK   97  A    between atoms: _231  and  _233
REMARK   98  A    between atoms: _233  and  _234
REMARK   99  A    between atoms: _233  and  _236
REMARK  100  A    between atoms: _236  and  _237
REMARK  101  A    between atoms: _242  and  _244
REMARK  102  A    between atoms: _244  and  _245
REMARK  103  A    between atoms: _244  and  _247
REMARK  104  A    between atoms: _247  and  _248
REMARK  105  A    between atoms: _251  and  _253
REMARK  106  A    between atoms: _253  and  _254
REMARK  107  A    between atoms: _253  and  _256
REMARK  108  A    between atoms: _256  and  _257
REMARK  109  A    between atoms: _260  and  _262
REMARK  110  A    between atoms: _262  and  _263
REMARK  111  A    between atoms: _265  and  _267
REMARK  112  A    between atoms: _267  and  _268
REMARK  113  A    between atoms: _267  and  _270
REMARK  114  A    between atoms: _270  and  _271
REMARK  115  A    between atoms: _271  and  _272
REMARK  116  A    between atoms: _272  and  _273
REMARK  117  A    between atoms: _282  and  _284
REMARK  118  A    between atoms: _284  and  _285
REMARK  119  A    between atoms: _284  and  _287
REMARK  120  A    between atoms: _287  and  _288
REMARK  121  A    between atoms: _293  and  _295
REMARK  122  A    between atoms: _295  and  _296
REMARK  123  A    between atoms: _295  and  _298
REMARK  124  A    between atoms: _298  and  _299
REMARK  125  A    between atoms: _299  and  _300
REMARK  126  A    between atoms: _300  and  _301
REMARK  127  A    between atoms: _310  and  _312
REMARK  128  A    between atoms: _312  and  _313
REMARK  129  A    between atoms: _312  and  _315
REMARK  130  A    between atoms: _315  and  _316
REMARK  131  A    between atoms: _319  and  _321
REMARK  132  A    between atoms: _321  and  _322
REMARK  133  A    between atoms: _321  and  _324
REMARK  134  A    between atoms: _324  and  _325
REMARK  135  A    between atoms: _328  and  _330
REMARK  136  A    between atoms: _330  and  _331
REMARK  137  A    between atoms: _330  and  _333
REMARK  138  A    between atoms: _333  and  _334
REMARK  139  A    between atoms: _337  and  _339
REMARK  140  A    between atoms: _339  and  _340
REMARK  141  A    between atoms: _339  and  _342
REMARK  142  A    between atoms: _342  and  _343
REMARK  143  A    between atoms: _346  and  _348
REMARK  144  A    between atoms: _348  and  _349
REMARK  145  A    between atoms: _348  and  _351
REMARK  146  A    between atoms: _351  and  _352
REMARK  147  A    between atoms: _355  and  _357
REMARK  148  A    between atoms: _357  and  _358
REMARK  149  A    between atoms: _360  and  _362
REMARK  150  A    between atoms: _362  and  _363
REMARK  151  A    between atoms: _366  and  _368
REMARK  152  A    between atoms: _368  and  _369
REMARK  153  A    between atoms: _368  and  _371
REMARK  154  A    between atoms: _371  and  _372
REMARK  155  A    between atoms: _375  and  _377
REMARK  156  A    between atoms: _377  and  _378
REMARK  157  A    between atoms: _377  and  _380
REMARK  158  A    between atoms: _380  and  _381
REMARK  159  A    between atoms: _384  and  _386
REMARK  160  A    between atoms: _386  and  _387
REMARK  161  A    between atoms: _386  and  _389
REMARK  162  A    between atoms: _389  and  _390
REMARK  163  A    between atoms: _393  and  _395
REMARK  164  A    between atoms: _395  and  _396
REMARK  165  A    between atoms: _395  and  _398
REMARK  166  A    between atoms: _401  and  _403
REMARK  167  A    between atoms: _403  and  _404
REMARK  168  A    between atoms: _403  and  _406
REMARK  169  A    between atoms: _406  and  _407
REMARK  170  A    between atoms: _407  and  _408
REMARK  171  A    between atoms: _408  and  _409
REMARK  172  A    between atoms: _409  and  _410
REMARK  173  A    between atoms: _414  and  _416
REMARK  174  A    between atoms: _416  and  _417
REMARK  175  A    between atoms: _416  and  _419
REMARK  176  A    between atoms: _419  and  _420
REMARK  177  A    between atoms: _420  and  _421
REMARK  178  A    between atoms: _423  and  _425
REMARK  179  A    between atoms: _425  and  _426
REMARK  180  A    between atoms: _425  and  _428
REMARK  181  A    between atoms: _428  and  _429
REMARK  182  A    between atoms: _432  and  _434
REMARK  183  A    between atoms: _434  and  _435
REMARK  184  A    between atoms: _437  and  _439
REMARK  185  A    between atoms: _439  and  _440
REMARK  186  A    between atoms: _442  and  _444
REMARK  187  A    between atoms: _444  and  _445
REMARK  188  A    between atoms: _444  and  _447
REMARK  189  A    between atoms: _447  and  _448
REMARK  190  A    between atoms: _451  and  _453
REMARK  191  A    between atoms: _453  and  _454
REMARK  192  A    between atoms: _456  and  _458
REMARK  193  A    between atoms: _458  and  _459
REMARK  194  A    between atoms: _461  and  _463
REMARK  195  A    between atoms: _463  and  _464
REMARK  196  A    between atoms: _463  and  _466
REMARK  197  A    between atoms: _466  and  _467
REMARK  198  A    between atoms: _473  and  _475
REMARK  199  A    between atoms: _475  and  _476
REMARK  200  A    between atoms: _475  and  _478
REMARK  201  A    between atoms: _478  and  _479
REMARK  202  A    between atoms: _482  and  _484
REMARK  203  A    between atoms: _484  and  _485
REMARK  204  A    between atoms: _484  and  _487
REMARK  205  A    between atoms: _490  and  _492
REMARK  206  A    between atoms: _492  and  _493
REMARK  207  A    between atoms: _492  and  _495
REMARK  208  A    between atoms: _495  and  _496
REMARK  209  A    between atoms: _499  and  _501
REMARK  210  A    between atoms: _501  and  _502
REMARK  211  A    between atoms: _501  and  _504
REMARK  212  A    between atoms: _504  and  _505
REMARK  213  A    between atoms: _509  and  _510
REMARK  214  A    between atoms: _515  and  _517
REMARK  215  A    between atoms: _517  and  _518
REMARK  216  A    between atoms: _517  and  _520
REMARK  217  A    between atoms: _523  and  _525
REMARK  218  A    between atoms: _525  and  _526
REMARK  219  A    between atoms: _525  and  _528
REMARK  220  A    between atoms: _528  and  _529
REMARK  221  A    between atoms: _534  and  _536
REMARK  222  A    between atoms: _536  and  _537
REMARK  223  A    between atoms: _536  and  _539
REMARK  224  A    between atoms: _539  and  _540
REMARK  225  A    between atoms: _543  and  _545
REMARK  226  A    between atoms: _545  and  _546
REMARK  227  A    between atoms: _545  and  _548
REMARK  228  A    between atoms: _548  and  _549
REMARK  229  A    between atoms: _552  and  _554
REMARK  230  A    between atoms: _554  and  _555
REMARK  231  A    between atoms: _557  and  _559
REMARK  232  A    between atoms: _559  and  _560
REMARK  233  A    between atoms: _559  and  _562
REMARK  234  A    between atoms: _562  and  _563
REMARK  235  A    between atoms: _563  and  _564
REMARK  236  A    between atoms: _564  and  _565
REMARK  237  A    between atoms: _574  and  _576
REMARK  238  A    between atoms: _576  and  _577
REMARK  239  A    between atoms: _576  and  _579
REMARK  240  A    between atoms: _579  and  _580
REMARK                            x       y       z     vdW  Elec       q    Type
REMARK                         _______ _______ _______ _____ _____    ______ ____
ROOT
ATOM      1  O   HOH     1       6.645  15.012  19.290  0.00  0.00    +0.000 OA
ENDROOT
TORSDOF 0
REMARK  Name = ../refined-set-2016/3kdc/3kdc_pocket.pdb
REMARK  240 active torsions:
REMARK  status: ('A' for Active; 'I' for Inactive)
REMARK    1  A    between atoms: _1  and  _3
REMARK    2  A    between atoms: _3  and  _4
REMARK    3  A    between atoms: _3  and  _6
REMARK    4  A    between atoms: _6  and  _7
REMARK    5  A    between atoms: _7  and  _8
REMARK    6  A    between atoms: _8  and  _9
REMARK    7  A    between atoms: _18  and  _20
REMARK    8  A    between atoms: _20  and  _21
REMARK    9  A    between atoms: _20  and  _23
REMARK   10  A    between atoms: _23  and  _24
REMARK   11  A    between atoms: _27  and  _29
REMARK   12  A    between atoms: _29  and  _30
REMARK   13  A    between atoms: _29  and  _32
REMARK   14  A    between atoms: _32  and  _33
REMARK   15  A    between atoms: _36  and  _38
REMARK   16  A    between atoms: _38  and  _39
REMARK   17  A    between atoms: _38  and  _41
REMARK   18  A    between atoms: _41  and  _42
REMARK   19  A    between atoms: _45  and  _47
REMARK   20  A    between atoms: _47  and  _48
REMARK   21  A    between atoms: _47  and  _50
REMARK   22  A    between atoms: _50  and  _51
REMARK   23  A    between atoms: _54  and  _56
REMARK   24  A    between atoms: _56  and  _57
REMARK   25  A    between atoms: _59  and  _61
REMARK   26  A    between atoms: _61  and  _62
REMARK   27  A    between atoms: _65  and  _67
REMARK   28  A    between atoms: _67  and  _68
REMARK   29  A    between atoms: _67  and  _70
REMARK   30  A    between atoms: _70  and  _71
REMARK   31  A    between atoms: _74  and  _76
REMARK   32  A    between atoms: _76  and  _77
REMARK   33  A    between atoms: _76  and  _79
REMARK   34  A    between atoms: _79  and  _80
REMARK   35  A    between atoms: _83  and  _85
REMARK   36  A    between atoms: _85  and  _86
REMARK   37  A    between atoms: _85  and  _88
REMARK   38  A    between atoms: _88  and  _89
REMARK   39  A    between atoms: _92  and  _94
REMARK   40  A    between atoms: _94  and  _95
REMARK   41  A    between atoms: _94  and  _97
REMARK   42  A    between atoms: _100  and  _102
REMARK   43  A    between atoms: _102  and  _103
REMARK   44  A    between atoms: _102  and  _105
REMARK   45  A    between atoms: _105  and  _106
REMARK   46  A    between atoms: _109  and  _111
REMARK   47  A    between atoms: _111  and  _112
REMARK   48  A    between atoms: _111  and  _114
REMARK   49  A    between atoms: _114  and  _115
REMARK   50  A    between atoms: _115  and  _116
REMARK   51  A    between atoms: _116  and  _117
REMARK   52  A    between atoms: _117  and  _118
REMARK   53  A    between atoms: _122  and  _124
REMARK   54  A    between atoms: _124  and  _125
REMARK   55  A    between atoms: _124  and  _127
REMARK   56  A    between atoms: _127  and  _128
REMARK   57  A    between atoms: _128  and  _129
REMARK   58  A    between atoms: _131  and  _133
REMARK   59  A    between atoms: _133  and  _134
REMARK   60  A    between atoms: _133  and  _136
REMARK   61  A    between atoms: _136  and  _137
REMARK   62  A    between atoms: _140  and  _142
REMARK   63  A    between atoms: _142  and  _143
REMARK   64  A    between atoms: _145  and  _147
REMARK   65  A    between atoms: _147  and  _148
REMARK   66  A    between atoms: _150  and  _152
REMARK   67  A    between atoms: _152  and  _153
REMARK   68  A    between atoms: _152  and  _155
REMARK   69  A    between atoms: _155  and  _156
REMARK   70  A    between atoms: _159  and  _161
REMARK   71  A    between atoms: _161  and  _162
REMARK   72  A    between atoms: _164  and  _166
REMARK   73  A    between atoms: _166  and  _167
REMARK   74  A    between atoms: _169  and  _171
REMARK   75  A    between atoms: _171  and  _172
REMARK   76  A    between atoms: _171  and  _174
REMARK   77  A    between atoms: _174  and  _175
REMARK   78  A    between atoms: _181  and  _183
REMARK   79  A    between atoms: _183  and  _184
REMARK   80  A    between atoms: _183  and  _186
REMARK   81  A    between atoms: _186  and  _187
REMARK   82  A    between atoms: _190  and  _192
REMARK   83  A    between atoms: _192  and  _193
REMARK   84  A    between atoms: _192  and  _195
REMARK   85  A    between atoms: _198  and  _200
REMARK   86  A    between atoms: _200  and  _201
REMARK   87  A    between atoms: _200  and  _203
REMARK   88  A    between atoms: _203  and  _204
REMARK   89  A    between atoms: _207  and  _209
REMARK   90  A    between atoms: _209  and  _210
REMARK   91  A    between atoms: _209  and  _212
REMARK   92  A    between atoms: _212  and  _213
REMARK   93  A    between atoms: _217  and  _218
REMARK   94  A    between atoms: _223  and  _225
REMARK   95  A    between atoms: _225  and  _226
REMARK   96  A    between atoms: _225  and  _228
REMARK   97  A    between atoms: _231  and  _233
REMARK   98  A    between atoms: _233  and  _234
REMARK   99  A    between atoms: _233  and  _236
REMARK  100  A    between atoms: _236  and  _237
REMARK  101  A    between atoms: _242  and  _244
REMARK  102  A    between atoms: _244  and  _245
REMARK  103  A    between atoms: _244  and  _247
REMARK  104  A    between atoms: _247  and  _248
REMARK  105  A    between atoms: _251  and  _253
REMARK  106  A    between atoms: _253  and  _254
REMARK  107  A    between atoms: _253  and  _256
REMARK  108  A    between atoms: _256  and  _257
REMARK  109  A    between atoms: _260  and  _262
REMARK  110  A    between atoms: _262  and  _263
REMARK  111  A    between atoms: _265  and  _267
REMARK  112  A    between atoms: _267  and  _268
REMARK  113  A    between atoms: _267  and  _270
REMARK  114  A    between atoms: _270  and  _271
REMARK  115  A    between atoms: _271  and  _272
REMARK  116  A    between atoms: _272  and  _273
REMARK  117  A    between atoms: _282  and  _284
REMARK  118  A    between atoms: _284  and  _285
REMARK  119  A    between atoms: _284  and  _287
REMARK  120  A    between atoms: _287  and  _288
REMARK  121  A    between atoms: _293  and  _295
REMARK  122  A    between atoms: _295  and  _296
REMARK  123  A    between atoms: _295  and  _298
REMARK  124  A    between atoms: _298  and  _299
REMARK  125  A    between atoms: _299  and  _300
REMARK  126  A    between atoms: _300  and  _301
REMARK  127  A    between atoms: _310  and  _312
REMARK  128  A    between atoms: _312  and  _313
REMARK  129  A    between atoms: _312  and  _315
REMARK  130  A    between atoms: _315  and  _316
REMARK  131  A    between atoms: _319  and  _321
REMARK  132  A    between atoms: _321  and  _322
REMARK  133  A    between atoms: _321  and  _324
REMARK  134  A    between atoms: _324  and  _325
REMARK  135  A    between atoms: _328  and  _330
REMARK  136  A    between atoms: _330  and  _331
REMARK  137  A    between atoms: _330  and  _333
REMARK  138  A    between atoms: _333  and  _334
REMARK  139  A    between atoms: _337  and  _339
REMARK  140  A    between atoms: _339  and  _340
REMARK  141  A    between atoms: _339  and  _342
REMARK  142  A    between atoms: _342  and  _343
REMARK  143  A    between atoms: _346  and  _348
REMARK  144  A    between atoms: _348  and  _349
REMARK  145  A    between atoms: _348  and  _351
REMARK  146  A    between atoms: _351  and  _352
REMARK  147  A    between atoms: _355  and  _357
REMARK  148  A    between atoms: _357  and  _358
REMARK  149  A    between atoms: _360  and  _362
REMARK  150  A    between atoms: _362  and  _363
REMARK  151  A    between atoms: _366  and  _368
REMARK  152  A    between atoms: _368  and  _369
REMARK  153  A    between atoms: _368  and  _371
REMARK  154  A    between atoms: _371  and  _372
REMARK  155  A    between atoms: _375  and  _377
REMARK  156  A    between atoms: _377  and  _378
REMARK  157  A    between atoms: _377  and  _380
REMARK  158  A    between atoms: _380  and  _381
REMARK  159  A    between atoms: _384  and  _386
REMARK  160  A    between atoms: _386  and  _387
REMARK  161  A    between atoms: _386  and  _389
REMARK  162  A    between atoms: _389  and  _390
REMARK  163  A    between atoms: _393  and  _395
REMARK  164  A    between atoms: _395  and  _396
REMARK  165  A    between atoms: _395  and  _398
REMARK  166  A    between atoms: _401  and  _403
REMARK  167  A    between atoms: _403  and  _404
REMARK  168  A    between atoms: _403  and  _406
REMARK  169  A    between atoms: _406  and  _407
REMARK  170  A    between atoms: _407  and  _408
REMARK  171  A    between atoms: _408  and  _409
REMARK  172  A    between atoms: _409  and  _410
REMARK  173  A    between atoms: _414  and  _416
REMARK  174  A    between atoms: _416  and  _417
REMARK  175  A    between atoms: _416  and  _419
REMARK  176  A    between atoms: _419  and  _420
REMARK  177  A    between atoms: _420  and  _421
REMARK  178  A    between atoms: _423  and  _425
REMARK  179  A    between atoms: _425  and  _426
REMARK  180  A    between atoms: _425  and  _428
REMARK  181  A    between atoms: _428  and  _429
REMARK  182  A    between atoms: _432  and  _434
REMARK  183  A    between atoms: _434  and  _435
REMARK  184  A    between atoms: _437  and  _439
REMARK  185  A    between atoms: _439  and  _440
REMARK  186  A    between atoms: _442  and  _444
REMARK  187  A    between atoms: _444  and  _445
REMARK  188  A    between atoms: _444  and  _447
REMARK  189  A    between atoms: _447  and  _448
REMARK  190  A    between atoms: _451  and  _453
REMARK  191  A    between atoms: _453  and  _454
REMARK  192  A    between atoms: _456  and  _458
REMARK  193  A    between atoms: _458  and  _459
REMARK  194  A    between atoms: _461  and  _463
REMARK  195  A    between atoms: _463  and  _464
REMARK  196  A    between atoms: _463  and  _466
REMARK  197  A    between atoms: _466  and  _467
REMARK  198  A    between atoms: _473  and  _475
REMARK  199  A    between atoms: _475  and  _476
REMARK  200  A    between atoms: _475  and  _478
REMARK  201  A    between atoms: _478  and  _479
REMARK  202  A    between atoms: _482  and  _484
REMARK  203  A    between atoms: _484  and  _485
REMARK  204  A    between atoms: _484  and  _487
REMARK  205  A    between atoms: _490  and  _492
REMARK  206  A    between atoms: _492  and  _493
REMARK  207  A    between atoms: _492  and  _495
REMARK  208  A    between atoms: _495  and  _496
REMARK  209  A    between atoms: _499  and  _501
REMARK  210  A    between atoms: _501  and  _502
REMARK  211  A    between atoms: _501  and  _504
REMARK  212  A    between atoms: _504  and  _505
REMARK  213  A    between atoms: _509  and  _510
REMARK  214  A    between atoms: _515  and  _517
REMARK  215  A    between atoms: _517  and  _518
REMARK  216  A    between atoms: _517  and  _520
REMARK  217  A    between atoms: _523  and  _525
REMARK  218  A    between atoms: _525  and  _526
REMARK  219  A    between atoms: _525  and  _528
REMARK  220  A    between atoms: _528  and  _529
REMARK  221  A    between atoms: _534  and  _536
REMARK  222  A    between atoms: _536  and  _537
REMARK  223  A    between atoms: _536  and  _539
REMARK  224  A    between atoms: _539  and  _540
REMARK  225  A    between atoms: _543  and  _545
REMARK  226  A    between atoms: _545  and  _546
REMARK  227  A    between atoms: _545  and  _548
REMARK  228  A    between atoms: _548  and  _549
REMARK  229  A    between atoms: _552  and  _554
REMARK  230  A    between atoms: _554  and  _555
REMARK  231  A    between atoms: _557  and  _559
REMARK  232  A    between atoms: _559  and  _560
REMARK  233  A    between atoms: _559  and  _562
REMARK  234  A    between atoms: _562  and  _563
REMARK  235  A    between atoms: _563  and  _564
REMARK  236  A    between atoms: _564  and  _565
REMARK  237  A    between atoms: _574  and  _576
REMARK  238  A    between atoms: _576  and  _577
REMARK  239  A    between atoms: _576  and  _579
REMARK  240  A    between atoms: _579  and  _580
REMARK                            x       y       z     vdW  Elec       q    Type
REMARK                         _______ _______ _______ _____ _____    ______ ____
ROOT
ATOM      1  O   HOH     1      12.037  15.214   9.689  0.00  0.00    +0.000 OA
ENDROOT
TORSDOF 0
