REMARK  Name = ../refined-set-2016/4v24/4v24_pocket.pdb
REMARK  307 active torsions:
REMARK  status: ('A' for Active; 'I' for Inactive)
REMARK    1  A    between atoms: _1  and  _3
REMARK    2  A    between atoms: _3  and  _4
REMARK    3  A    between atoms: _6  and  _8
REMARK    4  A    between atoms: _8  and  _9
REMARK    5  A    between atoms: _8  and  _11
REMARK    6  A    between atoms: _11  and  _12
REMARK    7  A    between atoms: _15  and  _17
REMARK    8  A    between atoms: _17  and  _18
REMARK    9  A    between atoms: _20  and  _22
REMARK   10  A    between atoms: _22  and  _23
REMARK   11  A    between atoms: _25  and  _27
REMARK   12  A    between atoms: _27  and  _28
REMARK   13  A    between atoms: _27  and  _30
REMARK   14  A    between atoms: _30  and  _31
REMARK   15  A    between atoms: _36  and  _38
REMARK   16  A    between atoms: _38  and  _39
REMARK   17  A    between atoms: _42  and  _44
REMARK   18  A    between atoms: _44  and  _45
REMARK   19  A    between atoms: _44  and  _47
REMARK   20  A    between atoms: _47  and  _48
REMARK   21  A    between atoms: _51  and  _53
REMARK   22  A    between atoms: _53  and  _54
REMARK   23  A    between atoms: _53  and  _56
REMARK   24  A    between atoms: _56  and  _57
REMARK   25  A    between atoms: _60  and  _62
REMARK   26  A    between atoms: _62  and  _63
REMARK   27  A    between atoms: _62  and  _65
REMARK   28  A    between atoms: _65  and  _66
REMARK   29  A    between atoms: _68  and  _70
REMARK   30  A    between atoms: _70  and  _71
REMARK   31  A    between atoms: _70  and  _73
REMARK   32  A    between atoms: _73  and  _74
REMARK   33  A    between atoms: _77  and  _79
REMARK   34  A    between atoms: _79  and  _80
REMARK   35  A    between atoms: _83  and  _85
REMARK   36  A    between atoms: _85  and  _86
REMARK   37  A    between atoms: _85  and  _88
REMARK   38  A    between atoms: _88  and  _89
REMARK   39  A    between atoms: _99  and  _101
REMARK   40  A    between atoms: _101  and  _102
REMARK   41  A    between atoms: _101  and  _104
REMARK   42  A    between atoms: _104  and  _105
REMARK   43  A    between atoms: _111  and  _113
REMARK   44  A    between atoms: _113  and  _114
REMARK   45  A    between atoms: _113  and  _116
REMARK   46  A    between atoms: _116  and  _117
REMARK   47  A    between atoms: _120  and  _122
REMARK   48  A    between atoms: _122  and  _123
REMARK   49  A    between atoms: _126  and  _128
REMARK   50  A    between atoms: _128  and  _129
REMARK   51  A    between atoms: _128  and  _131
REMARK   52  A    between atoms: _131  and  _132
REMARK   53  A    between atoms: _135  and  _137
REMARK   54  A    between atoms: _137  and  _138
REMARK   55  A    between atoms: _137  and  _140
REMARK   56  A    between atoms: _143  and  _145
REMARK   57  A    between atoms: _145  and  _146
REMARK   58  A    between atoms: _145  and  _148
REMARK   59  A    between atoms: _148  and  _149
REMARK   60  A    between atoms: _152  and  _154
REMARK   61  A    between atoms: _154  and  _155
REMARK   62  A    between atoms: _154  and  _157
REMARK   63  A    between atoms: _157  and  _158
REMARK   64  A    between atoms: _161  and  _163
REMARK   65  A    between atoms: _163  and  _164
REMARK   66  A    between atoms: _163  and  _166
REMARK   67  A    between atoms: _166  and  _167
REMARK   68  A    between atoms: _169  and  _171
REMARK   69  A    between atoms: _171  and  _172
REMARK   70  A    between atoms: _171  and  _174
REMARK   71  A    between atoms: _174  and  _175
REMARK   72  A    between atoms: _175  and  _176
REMARK   73  A    between atoms: _179  and  _181
REMARK   74  A    between atoms: _181  and  _182
REMARK   75  A    between atoms: _181  and  _184
REMARK   76  A    between atoms: _184  and  _185
REMARK   77  A    between atoms: _185  and  _186
REMARK   78  A    between atoms: _186  and  _187
REMARK   79  A    between atoms: _196  and  _198
REMARK   80  A    between atoms: _198  and  _199
REMARK   81  A    between atoms: _198  and  _201
REMARK   82  A    between atoms: _201  and  _202
REMARK   83  A    between atoms: _208  and  _210
REMARK   84  A    between atoms: _210  and  _211
REMARK   85  A    between atoms: _210  and  _213
REMARK   86  A    between atoms: _213  and  _214
REMARK   87  A    between atoms: _217  and  _219
REMARK   88  A    between atoms: _219  and  _220
REMARK   89  A    between atoms: _222  and  _224
REMARK   90  A    between atoms: _224  and  _225
REMARK   91  A    between atoms: _224  and  _227
REMARK   92  A    between atoms: _227  and  _228
REMARK   93  A    between atoms: _231  and  _233
REMARK   94  A    between atoms: _233  and  _234
REMARK   95  A    between atoms: _233  and  _236
REMARK   96  A    between atoms: _236  and  _237
REMARK   97  A    between atoms: _243  and  _245
REMARK   98  A    between atoms: _245  and  _246
REMARK   99  A    between atoms: _245  and  _248
REMARK  100  A    between atoms: _248  and  _249
REMARK  101  A    between atoms: _249  and  _250
REMARK  102  A    between atoms: _250  and  _251
REMARK  103  A    between atoms: _260  and  _262
REMARK  104  A    between atoms: _262  and  _263
REMARK  105  A    between atoms: _262  and  _265
REMARK  106  A    between atoms: _265  and  _266
REMARK  107  A    between atoms: _269  and  _271
REMARK  108  A    between atoms: _271  and  _272
REMARK  109  A    between atoms: _271  and  _274
REMARK  110  A    between atoms: _274  and  _275
REMARK  111  A    between atoms: _278  and  _280
REMARK  112  A    between atoms: _280  and  _281
REMARK  113  A    between atoms: _280  and  _283
REMARK  114  A    between atoms: _286  and  _288
REMARK  115  A    between atoms: _288  and  _289
REMARK  116  A    between atoms: _288  and  _291
REMARK  117  A    between atoms: _291  and  _292
REMARK  118  A    between atoms: _295  and  _297
REMARK  119  A    between atoms: _297  and  _298
REMARK  120  A    between atoms: _297  and  _300
REMARK  121  A    between atoms: _303  and  _305
REMARK  122  A    between atoms: _305  and  _306
REMARK  123  A    between atoms: _305  and  _308
REMARK  124  A    between atoms: _308  and  _309
REMARK  125  A    between atoms: _312  and  _314
REMARK  126  A    between atoms: _314  and  _315
REMARK  127  A    between atoms: _318  and  _320
REMARK  128  A    between atoms: _320  and  _321
REMARK  129  A    between atoms: _320  and  _323
REMARK  130  A    between atoms: _323  and  _324
REMARK  131  A    between atoms: _327  and  _329
REMARK  132  A    between atoms: _329  and  _330
REMARK  133  A    between atoms: _329  and  _332
REMARK  134  A    between atoms: _332  and  _333
REMARK  135  A    between atoms: _335  and  _337
REMARK  136  A    between atoms: _337  and  _338
REMARK  137  A    between atoms: _337  and  _340
REMARK  138  A    between atoms: _340  and  _341
REMARK  139  A    between atoms: _346  and  _348
REMARK  140  A    between atoms: _348  and  _349
REMARK  141  A    between atoms: _348  and  _351
REMARK  142  A    between atoms: _351  and  _352
REMARK  143  A    between atoms: _355  and  _357
REMARK  144  A    between atoms: _357  and  _358
REMARK  145  A    between atoms: _360  and  _362
REMARK  146  A    between atoms: _362  and  _363
REMARK  147  A    between atoms: _362  and  _365
REMARK  148  A    between atoms: _365  and  _366
REMARK  149  A    between atoms: _368  and  _370
REMARK  150  A    between atoms: _370  and  _371
REMARK  151  A    between atoms: _370  and  _373
REMARK  152  A    between atoms: _373  and  _374
REMARK  153  A    between atoms: _374  and  _375
REMARK  154  A    between atoms: _377  and  _379
REMARK  155  A    between atoms: _379  and  _380
REMARK  156  A    between atoms: _379  and  _382
REMARK  157  A    between atoms: _382  and  _383
REMARK  158  A    between atoms: _389  and  _391
REMARK  159  A    between atoms: _391  and  _392
REMARK  160  A    between atoms: _395  and  _397
REMARK  161  A    between atoms: _397  and  _398
REMARK  162  A    between atoms: _402  and  _403
REMARK  163  A    between atoms: _408  and  _410
REMARK  164  A    between atoms: _410  and  _411
REMARK  165  A    between atoms: _410  and  _413
REMARK  166  A    between atoms: _413  and  _414
REMARK  167  A    between atoms: _414  and  _415
REMARK  168  A    between atoms: _417  and  _419
REMARK  169  A    between atoms: _419  and  _420
REMARK  170  A    between atoms: _419  and  _422
REMARK  171  A    between atoms: _422  and  _423
REMARK  172  A    between atoms: _428  and  _430
REMARK  173  A    between atoms: _430  and  _431
REMARK  174  A    between atoms: _430  and  _433
REMARK  175  A    between atoms: _433  and  _434
REMARK  176  A    between atoms: _437  and  _439
REMARK  177  A    between atoms: _439  and  _440
REMARK  178  A    between atoms: _439  and  _442
REMARK  179  A    between atoms: _442  and  _443
REMARK  180  A    between atoms: _449  and  _451
REMARK  181  A    between atoms: _451  and  _452
REMARK  182  A    between atoms: _451  and  _454
REMARK  183  A    between atoms: _454  and  _455
REMARK  184  A    between atoms: _460  and  _461
REMARK  185  A    between atoms: _463  and  _465
REMARK  186  A    between atoms: _465  and  _466
REMARK  187  A    between atoms: _465  and  _468
REMARK  188  A    between atoms: _471  and  _473
REMARK  189  A    between atoms: _473  and  _474
REMARK  190  A    between atoms: _473  and  _476
REMARK  191  A    between atoms: _479  and  _481
REMARK  192  A    between atoms: _481  and  _482
REMARK  193  A    between atoms: _481  and  _484
REMARK  194  A    between atoms: _484  and  _485
REMARK  195  A    between atoms: _487  and  _489
REMARK  196  A    between atoms: _489  and  _490
REMARK  197  A    between atoms: _489  and  _492
REMARK  198  A    between atoms: _492  and  _493
REMARK  199  A    between atoms: _493  and  _494
REMARK  200  A    between atoms: _494  and  _495
REMARK  201  A    between atoms: _504  and  _506
REMARK  202  A    between atoms: _506  and  _507
REMARK  203  A    between atoms: _506  and  _509
REMARK  204  A    between atoms: _509  and  _510
REMARK  205  A    between atoms: _510  and  _511
REMARK  206  A    between atoms: _513  and  _515
REMARK  207  A    between atoms: _515  and  _516
REMARK  208  A    between atoms: _515  and  _518
REMARK  209  A    between atoms: _518  and  _519
REMARK  210  A    between atoms: _522  and  _524
REMARK  211  A    between atoms: _524  and  _525
REMARK  212  A    between atoms: _524  and  _527
REMARK  213  A    between atoms: _527  and  _528
REMARK  214  A    between atoms: _531  and  _533
REMARK  215  A    between atoms: _533  and  _534
REMARK  216  A    between atoms: _533  and  _536
REMARK  217  A    between atoms: _536  and  _537
REMARK  218  A    between atoms: _537  and  _538
REMARK  219  A    between atoms: _538  and  _539
REMARK  220  A    between atoms: _548  and  _550
REMARK  221  A    between atoms: _550  and  _551
REMARK  222  A    between atoms: _550  and  _553
REMARK  223  A    between atoms: _553  and  _554
REMARK  224  A    between atoms: _557  and  _559
REMARK  225  A    between atoms: _559  and  _560
REMARK  226  A    between atoms: _559  and  _562
REMARK  227  A    between atoms: _562  and  _563
REMARK  228  A    between atoms: _569  and  _571
REMARK  229  A    between atoms: _571  and  _572
REMARK  230  A    between atoms: _571  and  _574
REMARK  231  A    between atoms: _574  and  _575
REMARK  232  A    between atoms: _578  and  _580
REMARK  233  A    between atoms: _580  and  _581
REMARK  234  A    between atoms: _584  and  _586
REMARK  235  A    between atoms: _586  and  _587
REMARK  236  A    between atoms: _586  and  _589
REMARK  237  A    between atoms: _589  and  _590
REMARK  238  A    between atoms: _590  and  _591
REMARK  239  A    between atoms: _593  and  _595
REMARK  240  A    between atoms: _595  and  _596
REMARK  241  A    between atoms: _595  and  _598
REMARK  242  A    between atoms: _598  and  _599
REMARK  243  A    between atoms: _599  and  _600
REMARK  244  A    between atoms: _603  and  _605
REMARK  245  A    between atoms: _605  and  _606
REMARK  246  A    between atoms: _605  and  _608
REMARK  247  A    between atoms: _608  and  _609
REMARK  248  A    between atoms: _609  and  _610
REMARK  249  A    between atoms: _610  and  _611
REMARK  250  A    between atoms: _620  and  _622
REMARK  251  A    between atoms: _622  and  _623
REMARK  252  A    between atoms: _622  and  _625
REMARK  253  A    between atoms: _625  and  _626
REMARK  254  A    between atoms: _631  and  _633
REMARK  255  A    between atoms: _633  and  _634
REMARK  256  A    between atoms: _633  and  _636
REMARK  257  A    between atoms: _636  and  _637
REMARK  258  A    between atoms: _637  and  _638
REMARK  259  A    between atoms: _640  and  _642
REMARK  260  A    between atoms: _642  and  _643
REMARK  261  A    between atoms: _642  and  _645
REMARK  262  A    between atoms: _645  and  _646
REMARK  263  A    between atoms: _651  and  _652
REMARK  264  A    between atoms: _654  and  _656
REMARK  265  A    between atoms: _656  and  _657
REMARK  266  A    between atoms: _656  and  _659
REMARK  267  A    between atoms: _661  and  _663
REMARK  268  A    between atoms: _663  and  _664
REMARK  269  A    between atoms: _663  and  _666
REMARK  270  A    between atoms: _666  and  _667
REMARK  271  A    between atoms: _672  and  _673
REMARK  272  A    between atoms: _675  and  _677
REMARK  273  A    between atoms: _677  and  _678
REMARK  274  A    between atoms: _677  and  _680
REMARK  275  A    between atoms: _680  and  _681
REMARK  276  A    between atoms: _684  and  _686
REMARK  277  A    between atoms: _686  and  _687
REMARK  278  A    between atoms: _686  and  _689
REMARK  279  A    between atoms: _692  and  _694
REMARK  280  A    between atoms: _694  and  _695
REMARK  281  A    between atoms: _694  and  _697
REMARK  282  A    between atoms: _697  and  _698
REMARK  283  A    between atoms: _703  and  _704
REMARK  284  A    between atoms: _706  and  _708
REMARK  285  A    between atoms: _708  and  _709
REMARK  286  A    between atoms: _708  and  _711
REMARK  287  A    between atoms: _711  and  _712
REMARK  288  A    between atoms: _718  and  _720
REMARK  289  A    between atoms: _720  and  _721
REMARK  290  A    between atoms: _724  and  _726
REMARK  291  A    between atoms: _726  and  _727
REMARK  292  A    between atoms: _726  and  _729
REMARK  293  A    between atoms: _732  and  _734
REMARK  294  A    between atoms: _734  and  _735
REMARK  295  A    between atoms: _734  and  _737
REMARK  296  A    between atoms: _737  and  _738
REMARK  297  A    between atoms: _741  and  _743
REMARK  298  A    between atoms: _743  and  _744
REMARK  299  A    between atoms: _746  and  _748
REMARK  300  A    between atoms: _748  and  _749
REMARK  301  A    between atoms: _748  and  _751
REMARK  302  A    between atoms: _751  and  _752
REMARK  303  A    between atoms: _752  and  _753
REMARK  304  A    between atoms: _756  and  _758
REMARK  305  A    between atoms: _758  and  _759
REMARK  306  A    between atoms: _758  and  _761
REMARK  307  A    between atoms: _761  and  _762
REMARK                            x       y       z     vdW  Elec       q    Type
REMARK                         _______ _______ _______ _____ _____    ______ ____
ROOT
ATOM      1  CA  ASP A   2     -22.707   3.023  -1.611  0.00  0.00    +0.160 C 
ENDROOT
BRANCH   1   4
ATOM      2  C   GLY A   1     -20.479   2.063  -1.263  0.00  0.00    +0.240 C 
ATOM      3  O   GLY A   1     -20.765   1.744  -0.102  0.00  0.00    -0.274 OA
ATOM      4  N   ASP A   2     -21.349   2.672  -2.073  0.00  0.00    -0.297 N 
ATOM      5  H   ASP A   2     -21.065   2.903  -3.046  0.00  0.00    +0.150 HD
BRANCH   2   6
ATOM      6  CA  GLY A   1     -19.126   1.735  -1.860  0.00  0.00    +0.169 C 
BRANCH   6   7
ATOM      7  N   GLY A   1     -18.385   0.884  -0.941  0.00  0.00    -0.236 NA
ATOM      8  H   GLY A   1     -18.468  -0.149  -1.034  0.00  0.00    +0.142 HD
ENDBRANCH   6   7
ENDBRANCH   2   6
ENDBRANCH   1   4
BRANCH   1   9
ATOM      9  C   ASP A   2     -23.577   1.817  -1.245  0.00  0.00    +0.241 C 
ATOM     10  O   ASP A   2     -24.496   1.953  -0.430  0.00  0.00    -0.273 OA
ATOM     11  N   GLY A   3     -23.280   0.657  -1.824  0.00  0.00    -0.296 N 
ATOM     12  H   GLY A   3     -22.439   0.596  -2.433  0.00  0.00    +0.150 HD
BRANCH  11  13
ATOM     13  CA  GLY A   3     -24.115  -0.552  -1.624  0.00  0.00    +0.163 C 
BRANCH  13  14
ATOM     14  C   GLY A   3     -24.113  -1.061  -0.177  0.00  0.00    +0.229 C 
ATOM     15  O   GLY A   3     -25.111  -1.541   0.344  0.00  0.00    -0.286 OA
ENDBRANCH  13  14
ENDBRANCH  11  13
ENDBRANCH   1   9
BRANCH   1  16
ATOM     16  CB  ASP A   2     -23.392   3.839  -2.687  0.00  0.00    +0.143 C 
BRANCH  16  17
ATOM     17  CG  ASP A   2     -22.738   5.200  -2.863  0.00  0.00    +0.367 C 
ATOM     18  OD2 ASP A   2     -22.779   5.979  -1.878  0.00  0.00    -0.246 OA
ATOM     19  OD1 ASP A   2     -22.167   5.463  -3.952  0.00  0.00    -0.246 OA
ENDBRANCH  16  17
ENDBRANCH   1  16
TORSDOF 8
REMARK  Name = ../refined-set-2016/4v24/4v24_pocket.pdb
REMARK  307 active torsions:
REMARK  status: ('A' for Active; 'I' for Inactive)
REMARK    1  A    between atoms: _1  and  _3
REMARK    2  A    between atoms: _3  and  _4
REMARK    3  A    between atoms: _6  and  _8
REMARK    4  A    between atoms: _8  and  _9
REMARK    5  A    between atoms: _8  and  _11
REMARK    6  A    between atoms: _11  and  _12
REMARK    7  A    between atoms: _15  and  _17
REMARK    8  A    between atoms: _17  and  _18
REMARK    9  A    between atoms: _20  and  _22
REMARK   10  A    between atoms: _22  and  _23
REMARK   11  A    between atoms: _25  and  _27
REMARK   12  A    between atoms: _27  and  _28
REMARK   13  A    between atoms: _27  and  _30
REMARK   14  A    between atoms: _30  and  _31
REMARK   15  A    between atoms: _36  and  _38
REMARK   16  A    between atoms: _38  and  _39
REMARK   17  A    between atoms: _42  and  _44
REMARK   18  A    between atoms: _44  and  _45
REMARK   19  A    between atoms: _44  and  _47
REMARK   20  A    between atoms: _47  and  _48
REMARK   21  A    between atoms: _51  and  _53
REMARK   22  A    between atoms: _53  and  _54
REMARK   23  A    between atoms: _53  and  _56
REMARK   24  A    between atoms: _56  and  _57
REMARK   25  A    between atoms: _60  and  _62
REMARK   26  A    between atoms: _62  and  _63
REMARK   27  A    between atoms: _62  and  _65
REMARK   28  A    between atoms: _65  and  _66
REMARK   29  A    between atoms: _68  and  _70
REMARK   30  A    between atoms: _70  and  _71
REMARK   31  A    between atoms: _70  and  _73
REMARK   32  A    between atoms: _73  and  _74
REMARK   33  A    between atoms: _77  and  _79
REMARK   34  A    between atoms: _79  and  _80
REMARK   35  A    between atoms: _83  and  _85
REMARK   36  A    between atoms: _85  and  _86
REMARK   37  A    between atoms: _85  and  _88
REMARK   38  A    between atoms: _88  and  _89
REMARK   39  A    between atoms: _99  and  _101
REMARK   40  A    between atoms: _101  and  _102
REMARK   41  A    between atoms: _101  and  _104
REMARK   42  A    between atoms: _104  and  _105
REMARK   43  A    between atoms: _111  and  _113
REMARK   44  A    between atoms: _113  and  _114
REMARK   45  A    between atoms: _113  and  _116
REMARK   46  A    between atoms: _116  and  _117
REMARK   47  A    between atoms: _120  and  _122
REMARK   48  A    between atoms: _122  and  _123
REMARK   49  A    between atoms: _126  and  _128
REMARK   50  A    between atoms: _128  and  _129
REMARK   51  A    between atoms: _128  and  _131
REMARK   52  A    between atoms: _131  and  _132
REMARK   53  A    between atoms: _135  and  _137
REMARK   54  A    between atoms: _137  and  _138
REMARK   55  A    between atoms: _137  and  _140
REMARK   56  A    between atoms: _143  and  _145
REMARK   57  A    between atoms: _145  and  _146
REMARK   58  A    between atoms: _145  and  _148
REMARK   59  A    between atoms: _148  and  _149
REMARK   60  A    between atoms: _152  and  _154
REMARK   61  A    between atoms: _154  and  _155
REMARK   62  A    between atoms: _154  and  _157
REMARK   63  A    between atoms: _157  and  _158
REMARK   64  A    between atoms: _161  and  _163
REMARK   65  A    between atoms: _163  and  _164
REMARK   66  A    between atoms: _163  and  _166
REMARK   67  A    between atoms: _166  and  _167
REMARK   68  A    between atoms: _169  and  _171
REMARK   69  A    between atoms: _171  and  _172
REMARK   70  A    between atoms: _171  and  _174
REMARK   71  A    between atoms: _174  and  _175
REMARK   72  A    between atoms: _175  and  _176
REMARK   73  A    between atoms: _179  and  _181
REMARK   74  A    between atoms: _181  and  _182
REMARK   75  A    between atoms: _181  and  _184
REMARK   76  A    between atoms: _184  and  _185
REMARK   77  A    between atoms: _185  and  _186
REMARK   78  A    between atoms: _186  and  _187
REMARK   79  A    between atoms: _196  and  _198
REMARK   80  A    between atoms: _198  and  _199
REMARK   81  A    between atoms: _198  and  _201
REMARK   82  A    between atoms: _201  and  _202
REMARK   83  A    between atoms: _208  and  _210
REMARK   84  A    between atoms: _210  and  _211
REMARK   85  A    between atoms: _210  and  _213
REMARK   86  A    between atoms: _213  and  _214
REMARK   87  A    between atoms: _217  and  _219
REMARK   88  A    between atoms: _219  and  _220
REMARK   89  A    between atoms: _222  and  _224
REMARK   90  A    between atoms: _224  and  _225
REMARK   91  A    between atoms: _224  and  _227
REMARK   92  A    between atoms: _227  and  _228
REMARK   93  A    between atoms: _231  and  _233
REMARK   94  A    between atoms: _233  and  _234
REMARK   95  A    between atoms: _233  and  _236
REMARK   96  A    between atoms: _236  and  _237
REMARK   97  A    between atoms: _243  and  _245
REMARK   98  A    between atoms: _245  and  _246
REMARK   99  A    between atoms: _245  and  _248
REMARK  100  A    between atoms: _248  and  _249
REMARK  101  A    between atoms: _249  and  _250
REMARK  102  A    between atoms: _250  and  _251
REMARK  103  A    between atoms: _260  and  _262
REMARK  104  A    between atoms: _262  and  _263
REMARK  105  A    between atoms: _262  and  _265
REMARK  106  A    between atoms: _265  and  _266
REMARK  107  A    between atoms: _269  and  _271
REMARK  108  A    between atoms: _271  and  _272
REMARK  109  A    between atoms: _271  and  _274
REMARK  110  A    between atoms: _274  and  _275
REMARK  111  A    between atoms: _278  and  _280
REMARK  112  A    between atoms: _280  and  _281
REMARK  113  A    between atoms: _280  and  _283
REMARK  114  A    between atoms: _286  and  _288
REMARK  115  A    between atoms: _288  and  _289
REMARK  116  A    between atoms: _288  and  _291
REMARK  117  A    between atoms: _291  and  _292
REMARK  118  A    between atoms: _295  and  _297
REMARK  119  A    between atoms: _297  and  _298
REMARK  120  A    between atoms: _297  and  _300
REMARK  121  A    between atoms: _303  and  _305
REMARK  122  A    between atoms: _305  and  _306
REMARK  123  A    between atoms: _305  and  _308
REMARK  124  A    between atoms: _308  and  _309
REMARK  125  A    between atoms: _312  and  _314
REMARK  126  A    between atoms: _314  and  _315
REMARK  127  A    between atoms: _318  and  _320
REMARK  128  A    between atoms: _320  and  _321
REMARK  129  A    between atoms: _320  and  _323
REMARK  130  A    between atoms: _323  and  _324
REMARK  131  A    between atoms: _327  and  _329
REMARK  132  A    between atoms: _329  and  _330
REMARK  133  A    between atoms: _329  and  _332
REMARK  134  A    between atoms: _332  and  _333
REMARK  135  A    between atoms: _335  and  _337
REMARK  136  A    between atoms: _337  and  _338
REMARK  137  A    between atoms: _337  and  _340
REMARK  138  A    between atoms: _340  and  _341
REMARK  139  A    between atoms: _346  and  _348
REMARK  140  A    between atoms: _348  and  _349
REMARK  141  A    between atoms: _348  and  _351
REMARK  142  A    between atoms: _351  and  _352
REMARK  143  A    between atoms: _355  and  _357
REMARK  144  A    between atoms: _357  and  _358
REMARK  145  A    between atoms: _360  and  _362
REMARK  146  A    between atoms: _362  and  _363
REMARK  147  A    between atoms: _362  and  _365
REMARK  148  A    between atoms: _365  and  _366
REMARK  149  A    between atoms: _368  and  _370
REMARK  150  A    between atoms: _370  and  _371
REMARK  151  A    between atoms: _370  and  _373
REMARK  152  A    between atoms: _373  and  _374
REMARK  153  A    between atoms: _374  and  _375
REMARK  154  A    between atoms: _377  and  _379
REMARK  155  A    between atoms: _379  and  _380
REMARK  156  A    between atoms: _379  and  _382
REMARK  157  A    between atoms: _382  and  _383
REMARK  158  A    between atoms: _389  and  _391
REMARK  159  A    between atoms: _391  and  _392
REMARK  160  A    between atoms: _395  and  _397
REMARK  161  A    between atoms: _397  and  _398
REMARK  162  A    between atoms: _402  and  _403
REMARK  163  A    between atoms: _408  and  _410
REMARK  164  A    between atoms: _410  and  _411
REMARK  165  A    between atoms: _410  and  _413
REMARK  166  A    between atoms: _413  and  _414
REMARK  167  A    between atoms: _414  and  _415
REMARK  168  A    between atoms: _417  and  _419
REMARK  169  A    between atoms: _419  and  _420
REMARK  170  A    between atoms: _419  and  _422
REMARK  171  A    between atoms: _422  and  _423
REMARK  172  A    between atoms: _428  and  _430
REMARK  173  A    between atoms: _430  and  _431
REMARK  174  A    between atoms: _430  and  _433
REMARK  175  A    between atoms: _433  and  _434
REMARK  176  A    between atoms: _437  and  _439
REMARK  177  A    between atoms: _439  and  _440
REMARK  178  A    between atoms: _439  and  _442
REMARK  179  A    between atoms: _442  and  _443
REMARK  180  A    between atoms: _449  and  _451
REMARK  181  A    between atoms: _451  and  _452
REMARK  182  A    between atoms: _451  and  _454
REMARK  183  A    between atoms: _454  and  _455
REMARK  184  A    between atoms: _460  and  _461
REMARK  185  A    between atoms: _463  and  _465
REMARK  186  A    between atoms: _465  and  _466
REMARK  187  A    between atoms: _465  and  _468
REMARK  188  A    between atoms: _471  and  _473
REMARK  189  A    between atoms: _473  and  _474
REMARK  190  A    between atoms: _473  and  _476
REMARK  191  A    between atoms: _479  and  _481
REMARK  192  A    between atoms: _481  and  _482
REMARK  193  A    between atoms: _481  and  _484
REMARK  194  A    between atoms: _484  and  _485
REMARK  195  A    between atoms: _487  and  _489
REMARK  196  A    between atoms: _489  and  _490
REMARK  197  A    between atoms: _489  and  _492
REMARK  198  A    between atoms: _492  and  _493
REMARK  199  A    between atoms: _493  and  _494
REMARK  200  A    between atoms: _494  and  _495
REMARK  201  A    between atoms: _504  and  _506
REMARK  202  A    between atoms: _506  and  _507
REMARK  203  A    between atoms: _506  and  _509
REMARK  204  A    between atoms: _509  and  _510
REMARK  205  A    between atoms: _510  and  _511
REMARK  206  A    between atoms: _513  and  _515
REMARK  207  A    between atoms: _515  and  _516
REMARK  208  A    between atoms: _515  and  _518
REMARK  209  A    between atoms: _518  and  _519
REMARK  210  A    between atoms: _522  and  _524
REMARK  211  A    between atoms: _524  and  _525
REMARK  212  A    between atoms: _524  and  _527
REMARK  213  A    between atoms: _527  and  _528
REMARK  214  A    between atoms: _531  and  _533
REMARK  215  A    between atoms: _533  and  _534
REMARK  216  A    between atoms: _533  and  _536
REMARK  217  A    between atoms: _536  and  _537
REMARK  218  A    between atoms: _537  and  _538
REMARK  219  A    between atoms: _538  and  _539
REMARK  220  A    between atoms: _548  and  _550
REMARK  221  A    between atoms: _550  and  _551
REMARK  222  A    between atoms: _550  and  _553
REMARK  223  A    between atoms: _553  and  _554
REMARK  224  A    between atoms: _557  and  _559
REMARK  225  A    between atoms: _559  and  _560
REMARK  226  A    between atoms: _559  and  _562
REMARK  227  A    between atoms: _562  and  _563
REMARK  228  A    between atoms: _569  and  _571
REMARK  229  A    between atoms: _571  and  _572
REMARK  230  A    between atoms: _571  and  _574
REMARK  231  A    between atoms: _574  and  _575
REMARK  232  A    between atoms: _578  and  _580
REMARK  233  A    between atoms: _580  and  _581
REMARK  234  A    between atoms: _584  and  _586
REMARK  235  A    between atoms: _586  and  _587
REMARK  236  A    between atoms: _586  and  _589
REMARK  237  A    between atoms: _589  and  _590
REMARK  238  A    between atoms: _590  and  _591
REMARK  239  A    between atoms: _593  and  _595
REMARK  240  A    between atoms: _595  and  _596
REMARK  241  A    between atoms: _595  and  _598
REMARK  242  A    between atoms: _598  and  _599
REMARK  243  A    between atoms: _599  and  _600
REMARK  244  A    between atoms: _603  and  _605
REMARK  245  A    between atoms: _605  and  _606
REMARK  246  A    between atoms: _605  and  _608
REMARK  247  A    between atoms: _608  and  _609
REMARK  248  A    between atoms: _609  and  _610
REMARK  249  A    between atoms: _610  and  _611
REMARK  250  A    between atoms: _620  and  _622
REMARK  251  A    between atoms: _622  and  _623
REMARK  252  A    between atoms: _622  and  _625
REMARK  253  A    between atoms: _625  and  _626
REMARK  254  A    between atoms: _631  and  _633
REMARK  255  A    between atoms: _633  and  _634
REMARK  256  A    between atoms: _633  and  _636
REMARK  257  A    between atoms: _636  and  _637
REMARK  258  A    between atoms: _637  and  _638
REMARK  259  A    between atoms: _640  and  _642
REMARK  260  A    between atoms: _642  and  _643
REMARK  261  A    between atoms: _642  and  _645
REMARK  262  A    between atoms: _645  and  _646
REMARK  263  A    between atoms: _651  and  _652
REMARK  264  A    between atoms: _654  and  _656
REMARK  265  A    between atoms: _656  and  _657
REMARK  266  A    between atoms: _656  and  _659
REMARK  267  A    between atoms: _661  and  _663
REMARK  268  A    between atoms: _663  and  _664
REMARK  269  A    between atoms: _663  and  _666
REMARK  270  A    between atoms: _666  and  _667
REMARK  271  A    between atoms: _672  and  _673
REMARK  272  A    between atoms: _675  and  _677
REMARK  273  A    between atoms: _677  and  _678
REMARK  274  A    between atoms: _677  and  _680
REMARK  275  A    between atoms: _680  and  _681
REMARK  276  A    between atoms: _684  and  _686
REMARK  277  A    between atoms: _686  and  _687
REMARK  278  A    between atoms: _686  and  _689
REMARK  279  A    between atoms: _692  and  _694
REMARK  280  A    between atoms: _694  and  _695
REMARK  281  A    between atoms: _694  and  _697
REMARK  282  A    between atoms: _697  and  _698
REMARK  283  A    between atoms: _703  and  _704
REMARK  284  A    between atoms: _706  and  _708
REMARK  285  A    between atoms: _708  and  _709
REMARK  286  A    between atoms: _708  and  _711
REMARK  287  A    between atoms: _711  and  _712
REMARK  288  A    between atoms: _718  and  _720
REMARK  289  A    between atoms: _720  and  _721
REMARK  290  A    between atoms: _724  and  _726
REMARK  291  A    between atoms: _726  and  _727
REMARK  292  A    between atoms: _726  and  _729
REMARK  293  A    between atoms: _732  and  _734
REMARK  294  A    between atoms: _734  and  _735
REMARK  295  A    between atoms: _734  and  _737
REMARK  296  A    between atoms: _737  and  _738
REMARK  297  A    between atoms: _741  and  _743
REMARK  298  A    between atoms: _743  and  _744
REMARK  299  A    between atoms: _746  and  _748
REMARK  300  A    between atoms: _748  and  _749
REMARK  301  A    between atoms: _748  and  _751
REMARK  302  A    between atoms: _751  and  _752
REMARK  303  A    between atoms: _752  and  _753
REMARK  304  A    between atoms: _756  and  _758
REMARK  305  A    between atoms: _758  and  _759
REMARK  306  A    between atoms: _758  and  _761
REMARK  307  A    between atoms: _761  and  _762
REMARK                            x       y       z     vdW  Elec       q    Type
REMARK                         _______ _______ _______ _____ _____    ______ ____
ROOT
ATOM      1  C   ASN A   2     -19.541   7.784  -3.073  0.00  0.00    +0.241 C 
ATOM      2  O   ASN A   2     -18.993   8.809  -2.665  0.00  0.00    -0.273 OA
ATOM      3  N   ALA A   3     -20.721   7.805  -3.666  0.00  0.00    -0.297 N 
ATOM      4  H   ALA A   3     -21.120   6.910  -4.015  0.00  0.00    +0.150 HD
ENDROOT
BRANCH   3   5
ATOM      5  CA  ALA A   3     -21.483   9.025  -3.850  0.00  0.00    +0.149 C 
ATOM      6  CB  ALA A   3     -22.710   8.733  -4.709  0.00  0.00    +0.031 C 
BRANCH   5   7
ATOM      7  C   ALA A   3     -21.907   9.665  -2.554  0.00  0.00    +0.241 C 
ATOM      8  N   LEU A   4     -22.261   8.861  -1.557  0.00  0.00    -0.298 N 
ATOM      9  H   LEU A   4     -22.229   7.828  -1.678  0.00  0.00    +0.150 HD
ATOM     10  O   ALA A   3     -21.917  10.873  -2.429  0.00  0.00    -0.273 OA
BRANCH   8  11
ATOM     11  CA  LEU A   4     -22.691   9.438  -0.302  0.00  0.00    +0.137 C 
BRANCH  11  12
ATOM     12  C   LEU A   4     -21.506  10.117   0.405  0.00  0.00    +0.227 C 
ATOM     13  O   LEU A   4     -21.634  11.230   0.893  0.00  0.00    -0.286 OA
ENDBRANCH  11  12
BRANCH  11  14
ATOM     14  CB  LEU A   4     -23.339   8.332   0.570  0.00  0.00    +0.028 C 
BRANCH  14  15
ATOM     15  CG  LEU A   4     -23.909   8.752   1.900  0.00  0.00    +0.002 C 
ATOM     16  CD2 LEU A   4     -24.539   7.538   2.594  0.00  0.00    +0.000 C 
ATOM     17  CD1 LEU A   4     -24.950   9.843   1.728  0.00  0.00    +0.000 C 
ENDBRANCH  14  15
ENDBRANCH  11  14
ENDBRANCH   8  11
ENDBRANCH   5   7
ENDBRANCH   3   5
BRANCH   1  18
ATOM     18  CA  ASN A   2     -18.878   6.379  -2.949  0.00  0.00    +0.158 C 
BRANCH  18  21
ATOM     19  C   GLY A   1     -17.041   5.235  -4.172  0.00  0.00    +0.240 C 
ATOM     20  O   GLY A   1     -17.005   4.210  -3.462  0.00  0.00    -0.274 OA
ATOM     21  N   ASN A   2     -17.901   6.247  -4.019  0.00  0.00    -0.297 N 
ATOM     22  H   ASN A   2     -17.869   7.007  -4.728  0.00  0.00    +0.150 HD
BRANCH  19  23
ATOM     23  CA  GLY A   1     -16.065   5.416  -5.326  0.00  0.00    +0.169 C 
BRANCH  23  24
ATOM     24  N   GLY A   1     -15.083   4.346  -5.371  0.00  0.00    -0.236 NA
ATOM     25  H   GLY A   1     -14.245   4.405  -4.758  0.00  0.00    +0.142 HD
ENDBRANCH  23  24
ENDBRANCH  19  23
ENDBRANCH  18  21
BRANCH  18  26
ATOM     26  CB  ASN A   2     -18.222   6.183  -1.577  0.00  0.00    +0.114 C 
BRANCH  26  27
ATOM     27  CG  ASN A   2     -19.240   5.930  -0.442  0.00  0.00    +0.222 C 
ATOM     28  ND2 ASN A   2     -18.880   5.024   0.433  0.00  0.00    -0.329 N 
ATOM     29 HD21 ASN A   2     -19.477   4.837   1.264  0.00  0.00    +0.145 HD
ATOM     30 HD22 ASN A   2     -17.997   4.492   0.297  0.00  0.00    +0.145 HD
ATOM     31  OD1 ASN A   2     -20.286   6.590  -0.321  0.00  0.00    -0.275 OA
ENDBRANCH  26  27
ENDBRANCH  18  26
ENDBRANCH   1  18
TORSDOF 12
REMARK  Name = ../refined-set-2016/4v24/4v24_pocket.pdb
REMARK  307 active torsions:
REMARK  status: ('A' for Active; 'I' for Inactive)
REMARK    1  A    between atoms: _1  and  _3
REMARK    2  A    between atoms: _3  and  _4
REMARK    3  A    between atoms: _6  and  _8
REMARK    4  A    between atoms: _8  and  _9
REMARK    5  A    between atoms: _8  and  _11
REMARK    6  A    between atoms: _11  and  _12
REMARK    7  A    between atoms: _15  and  _17
REMARK    8  A    between atoms: _17  and  _18
REMARK    9  A    between atoms: _20  and  _22
REMARK   10  A    between atoms: _22  and  _23
REMARK   11  A    between atoms: _25  and  _27
REMARK   12  A    between atoms: _27  and  _28
REMARK   13  A    between atoms: _27  and  _30
REMARK   14  A    between atoms: _30  and  _31
REMARK   15  A    between atoms: _36  and  _38
REMARK   16  A    between atoms: _38  and  _39
REMARK   17  A    between atoms: _42  and  _44
REMARK   18  A    between atoms: _44  and  _45
REMARK   19  A    between atoms: _44  and  _47
REMARK   20  A    between atoms: _47  and  _48
REMARK   21  A    between atoms: _51  and  _53
REMARK   22  A    between atoms: _53  and  _54
REMARK   23  A    between atoms: _53  and  _56
REMARK   24  A    between atoms: _56  and  _57
REMARK   25  A    between atoms: _60  and  _62
REMARK   26  A    between atoms: _62  and  _63
REMARK   27  A    between atoms: _62  and  _65
REMARK   28  A    between atoms: _65  and  _66
REMARK   29  A    between atoms: _68  and  _70
REMARK   30  A    between atoms: _70  and  _71
REMARK   31  A    between atoms: _70  and  _73
REMARK   32  A    between atoms: _73  and  _74
REMARK   33  A    between atoms: _77  and  _79
REMARK   34  A    between atoms: _79  and  _80
REMARK   35  A    between atoms: _83  and  _85
REMARK   36  A    between atoms: _85  and  _86
REMARK   37  A    between atoms: _85  and  _88
REMARK   38  A    between atoms: _88  and  _89
REMARK   39  A    between atoms: _99  and  _101
REMARK   40  A    between atoms: _101  and  _102
REMARK   41  A    between atoms: _101  and  _104
REMARK   42  A    between atoms: _104  and  _105
REMARK   43  A    between atoms: _111  and  _113
REMARK   44  A    between atoms: _113  and  _114
REMARK   45  A    between atoms: _113  and  _116
REMARK   46  A    between atoms: _116  and  _117
REMARK   47  A    between atoms: _120  and  _122
REMARK   48  A    between atoms: _122  and  _123
REMARK   49  A    between atoms: _126  and  _128
REMARK   50  A    between atoms: _128  and  _129
REMARK   51  A    between atoms: _128  and  _131
REMARK   52  A    between atoms: _131  and  _132
REMARK   53  A    between atoms: _135  and  _137
REMARK   54  A    between atoms: _137  and  _138
REMARK   55  A    between atoms: _137  and  _140
REMARK   56  A    between atoms: _143  and  _145
REMARK   57  A    between atoms: _145  and  _146
REMARK   58  A    between atoms: _145  and  _148
REMARK   59  A    between atoms: _148  and  _149
REMARK   60  A    between atoms: _152  and  _154
REMARK   61  A    between atoms: _154  and  _155
REMARK   62  A    between atoms: _154  and  _157
REMARK   63  A    between atoms: _157  and  _158
REMARK   64  A    between atoms: _161  and  _163
REMARK   65  A    between atoms: _163  and  _164
REMARK   66  A    between atoms: _163  and  _166
REMARK   67  A    between atoms: _166  and  _167
REMARK   68  A    between atoms: _169  and  _171
REMARK   69  A    between atoms: _171  and  _172
REMARK   70  A    between atoms: _171  and  _174
REMARK   71  A    between atoms: _174  and  _175
REMARK   72  A    between atoms: _175  and  _176
REMARK   73  A    between atoms: _179  and  _181
REMARK   74  A    between atoms: _181  and  _182
REMARK   75  A    between atoms: _181  and  _184
REMARK   76  A    between atoms: _184  and  _185
REMARK   77  A    between atoms: _185  and  _186
REMARK   78  A    between atoms: _186  and  _187
REMARK   79  A    between atoms: _196  and  _198
REMARK   80  A    between atoms: _198  and  _199
REMARK   81  A    between atoms: _198  and  _201
REMARK   82  A    between atoms: _201  and  _202
REMARK   83  A    between atoms: _208  and  _210
REMARK   84  A    between atoms: _210  and  _211
REMARK   85  A    between atoms: _210  and  _213
REMARK   86  A    between atoms: _213  and  _214
REMARK   87  A    between atoms: _217  and  _219
REMARK   88  A    between atoms: _219  and  _220
REMARK   89  A    between atoms: _222  and  _224
REMARK   90  A    between atoms: _224  and  _225
REMARK   91  A    between atoms: _224  and  _227
REMARK   92  A    between atoms: _227  and  _228
REMARK   93  A    between atoms: _231  and  _233
REMARK   94  A    between atoms: _233  and  _234
REMARK   95  A    between atoms: _233  and  _236
REMARK   96  A    between atoms: _236  and  _237
REMARK   97  A    between atoms: _243  and  _245
REMARK   98  A    between atoms: _245  and  _246
REMARK   99  A    between atoms: _245  and  _248
REMARK  100  A    between atoms: _248  and  _249
REMARK  101  A    between atoms: _249  and  _250
REMARK  102  A    between atoms: _250  and  _251
REMARK  103  A    between atoms: _260  and  _262
REMARK  104  A    between atoms: _262  and  _263
REMARK  105  A    between atoms: _262  and  _265
REMARK  106  A    between atoms: _265  and  _266
REMARK  107  A    between atoms: _269  and  _271
REMARK  108  A    between atoms: _271  and  _272
REMARK  109  A    between atoms: _271  and  _274
REMARK  110  A    between atoms: _274  and  _275
REMARK  111  A    between atoms: _278  and  _280
REMARK  112  A    between atoms: _280  and  _281
REMARK  113  A    between atoms: _280  and  _283
REMARK  114  A    between atoms: _286  and  _288
REMARK  115  A    between atoms: _288  and  _289
REMARK  116  A    between atoms: _288  and  _291
REMARK  117  A    between atoms: _291  and  _292
REMARK  118  A    between atoms: _295  and  _297
REMARK  119  A    between atoms: _297  and  _298
REMARK  120  A    between atoms: _297  and  _300
REMARK  121  A    between atoms: _303  and  _305
REMARK  122  A    between atoms: _305  and  _306
REMARK  123  A    between atoms: _305  and  _308
REMARK  124  A    between atoms: _308  and  _309
REMARK  125  A    between atoms: _312  and  _314
REMARK  126  A    between atoms: _314  and  _315
REMARK  127  A    between atoms: _318  and  _320
REMARK  128  A    between atoms: _320  and  _321
REMARK  129  A    between atoms: _320  and  _323
REMARK  130  A    between atoms: _323  and  _324
REMARK  131  A    between atoms: _327  and  _329
REMARK  132  A    between atoms: _329  and  _330
REMARK  133  A    between atoms: _329  and  _332
REMARK  134  A    between atoms: _332  and  _333
REMARK  135  A    between atoms: _335  and  _337
REMARK  136  A    between atoms: _337  and  _338
REMARK  137  A    between atoms: _337  and  _340
REMARK  138  A    between atoms: _340  and  _341
REMARK  139  A    between atoms: _346  and  _348
REMARK  140  A    between atoms: _348  and  _349
REMARK  141  A    between atoms: _348  and  _351
REMARK  142  A    between atoms: _351  and  _352
REMARK  143  A    between atoms: _355  and  _357
REMARK  144  A    between atoms: _357  and  _358
REMARK  145  A    between atoms: _360  and  _362
REMARK  146  A    between atoms: _362  and  _363
REMARK  147  A    between atoms: _362  and  _365
REMARK  148  A    between atoms: _365  and  _366
REMARK  149  A    between atoms: _368  and  _370
REMARK  150  A    between atoms: _370  and  _371
REMARK  151  A    between atoms: _370  and  _373
REMARK  152  A    between atoms: _373  and  _374
REMARK  153  A    between atoms: _374  and  _375
REMARK  154  A    between atoms: _377  and  _379
REMARK  155  A    between atoms: _379  and  _380
REMARK  156  A    between atoms: _379  and  _382
REMARK  157  A    between atoms: _382  and  _383
REMARK  158  A    between atoms: _389  and  _391
REMARK  159  A    between atoms: _391  and  _392
REMARK  160  A    between atoms: _395  and  _397
REMARK  161  A    between atoms: _397  and  _398
REMARK  162  A    between atoms: _402  and  _403
REMARK  163  A    between atoms: _408  and  _410
REMARK  164  A    between atoms: _410  and  _411
REMARK  165  A    between atoms: _410  and  _413
REMARK  166  A    between atoms: _413  and  _414
REMARK  167  A    between atoms: _414  and  _415
REMARK  168  A    between atoms: _417  and  _419
REMARK  169  A    between atoms: _419  and  _420
REMARK  170  A    between atoms: _419  and  _422
REMARK  171  A    between atoms: _422  and  _423
REMARK  172  A    between atoms: _428  and  _430
REMARK  173  A    between atoms: _430  and  _431
REMARK  174  A    between atoms: _430  and  _433
REMARK  175  A    between atoms: _433  and  _434
REMARK  176  A    between atoms: _437  and  _439
REMARK  177  A    between atoms: _439  and  _440
REMARK  178  A    between atoms: _439  and  _442
REMARK  179  A    between atoms: _442  and  _443
REMARK  180  A    between atoms: _449  and  _451
REMARK  181  A    between atoms: _451  and  _452
REMARK  182  A    between atoms: _451  and  _454
REMARK  183  A    between atoms: _454  and  _455
REMARK  184  A    between atoms: _460  and  _461
REMARK  185  A    between atoms: _463  and  _465
REMARK  186  A    between atoms: _465  and  _466
REMARK  187  A    between atoms: _465  and  _468
REMARK  188  A    between atoms: _471  and  _473
REMARK  189  A    between atoms: _473  and  _474
REMARK  190  A    between atoms: _473  and  _476
REMARK  191  A    between atoms: _479  and  _481
REMARK  192  A    between atoms: _481  and  _482
REMARK  193  A    between atoms: _481  and  _484
REMARK  194  A    between atoms: _484  and  _485
REMARK  195  A    between atoms: _487  and  _489
REMARK  196  A    between atoms: _489  and  _490
REMARK  197  A    between atoms: _489  and  _492
REMARK  198  A    between atoms: _492  and  _493
REMARK  199  A    between atoms: _493  and  _494
REMARK  200  A    between atoms: _494  and  _495
REMARK  201  A    between atoms: _504  and  _506
REMARK  202  A    between atoms: _506  and  _507
REMARK  203  A    between atoms: _506  and  _509
REMARK  204  A    between atoms: _509  and  _510
REMARK  205  A    between atoms: _510  and  _511
REMARK  206  A    between atoms: _513  and  _515
REMARK  207  A    between atoms: _515  and  _516
REMARK  208  A    between atoms: _515  and  _518
REMARK  209  A    between atoms: _518  and  _519
REMARK  210  A    between atoms: _522  and  _524
REMARK  211  A    between atoms: _524  and  _525
REMARK  212  A    between atoms: _524  and  _527
REMARK  213  A    between atoms: _527  and  _528
REMARK  214  A    between atoms: _531  and  _533
REMARK  215  A    between atoms: _533  and  _534
REMARK  216  A    between atoms: _533  and  _536
REMARK  217  A    between atoms: _536  and  _537
REMARK  218  A    between atoms: _537  and  _538
REMARK  219  A    between atoms: _538  and  _539
REMARK  220  A    between atoms: _548  and  _550
REMARK  221  A    between atoms: _550  and  _551
REMARK  222  A    between atoms: _550  and  _553
REMARK  223  A    between atoms: _553  and  _554
REMARK  224  A    between atoms: _557  and  _559
REMARK  225  A    between atoms: _559  and  _560
REMARK  226  A    between atoms: _559  and  _562
REMARK  227  A    between atoms: _562  and  _563
REMARK  228  A    between atoms: _569  and  _571
REMARK  229  A    between atoms: _571  and  _572
REMARK  230  A    between atoms: _571  and  _574
REMARK  231  A    between atoms: _574  and  _575
REMARK  232  A    between atoms: _578  and  _580
REMARK  233  A    between atoms: _580  and  _581
REMARK  234  A    between atoms: _584  and  _586
REMARK  235  A    between atoms: _586  and  _587
REMARK  236  A    between atoms: _586  and  _589
REMARK  237  A    between atoms: _589  and  _590
REMARK  238  A    between atoms: _590  and  _591
REMARK  239  A    between atoms: _593  and  _595
REMARK  240  A    between atoms: _595  and  _596
REMARK  241  A    between atoms: _595  and  _598
REMARK  242  A    between atoms: _598  and  _599
REMARK  243  A    between atoms: _599  and  _600
REMARK  244  A    between atoms: _603  and  _605
REMARK  245  A    between atoms: _605  and  _606
REMARK  246  A    between atoms: _605  and  _608
REMARK  247  A    between atoms: _608  and  _609
REMARK  248  A    between atoms: _609  and  _610
REMARK  249  A    between atoms: _610  and  _611
REMARK  250  A    between atoms: _620  and  _622
REMARK  251  A    between atoms: _622  and  _623
REMARK  252  A    between atoms: _622  and  _625
REMARK  253  A    between atoms: _625  and  _626
REMARK  254  A    between atoms: _631  and  _633
REMARK  255  A    between atoms: _633  and  _634
REMARK  256  A    between atoms: _633  and  _636
REMARK  257  A    between atoms: _636  and  _637
REMARK  258  A    between atoms: _637  and  _638
REMARK  259  A    between atoms: _640  and  _642
REMARK  260  A    between atoms: _642  and  _643
REMARK  261  A    between atoms: _642  and  _645
REMARK  262  A    between atoms: _645  and  _646
REMARK  263  A    between atoms: _651  and  _652
REMARK  264  A    between atoms: _654  and  _656
REMARK  265  A    between atoms: _656  and  _657
REMARK  266  A    between atoms: _656  and  _659
REMARK  267  A    between atoms: _661  and  _663
REMARK  268  A    between atoms: _663  and  _664
REMARK  269  A    between atoms: _663  and  _666
REMARK  270  A    between atoms: _666  and  _667
REMARK  271  A    between atoms: _672  and  _673
REMARK  272  A    between atoms: _675  and  _677
REMARK  273  A    between atoms: _677  and  _678
REMARK  274  A    between atoms: _677  and  _680
REMARK  275  A    between atoms: _680  and  _681
REMARK  276  A    between atoms: _684  and  _686
REMARK  277  A    between atoms: _686  and  _687
REMARK  278  A    between atoms: _686  and  _689
REMARK  279  A    between atoms: _692  and  _694
REMARK  280  A    between atoms: _694  and  _695
REMARK  281  A    between atoms: _694  and  _697
REMARK  282  A    between atoms: _697  and  _698
REMARK  283  A    between atoms: _703  and  _704
REMARK  284  A    between atoms: _706  and  _708
REMARK  285  A    between atoms: _708  and  _709
REMARK  286  A    between atoms: _708  and  _711
REMARK  287  A    between atoms: _711  and  _712
REMARK  288  A    between atoms: _718  and  _720
REMARK  289  A    between atoms: _720  and  _721
REMARK  290  A    between atoms: _724  and  _726
REMARK  291  A    between atoms: _726  and  _727
REMARK  292  A    between atoms: _726  and  _729
REMARK  293  A    between atoms: _732  and  _734
REMARK  294  A    between atoms: _734  and  _735
REMARK  295  A    between atoms: _734  and  _737
REMARK  296  A    between atoms: _737  and  _738
REMARK  297  A    between atoms: _741  and  _743
REMARK  298  A    between atoms: _743  and  _744
REMARK  299  A    between atoms: _746  and  _748
REMARK  300  A    between atoms: _748  and  _749
REMARK  301  A    between atoms: _748  and  _751
REMARK  302  A    between atoms: _751  and  _752
REMARK  303  A    between atoms: _752  and  _753
REMARK  304  A    between atoms: _756  and  _758
REMARK  305  A    between atoms: _758  and  _759
REMARK  306  A    between atoms: _758  and  _761
REMARK  307  A    between atoms: _761  and  _762
REMARK                            x       y       z     vdW  Elec       q    Type
REMARK                         _______ _______ _______ _____ _____    ______ ____
ROOT
ATOM      1  CA  LEU A   3     -33.459   5.386  -7.107  0.00  0.00    +0.149 C 
ENDROOT
BRANCH   1   4
ATOM      2  C   SER A   2     -31.847   6.116  -5.451  0.00  0.00    +0.243 C 
ATOM      3  O   SER A   2     -31.636   4.993  -5.059  0.00  0.00    -0.273 OA
ATOM      4  N   LEU A   3     -32.804   6.406  -6.326  0.00  0.00    -0.297 N 
ATOM      5  H   LEU A   3     -33.089   7.398  -6.451  0.00  0.00    +0.150 HD
BRANCH   2   6
ATOM      6  CA  SER A   2     -30.977   7.248  -5.025  0.00  0.00    +0.178 C 
BRANCH   6   9
ATOM      7  C   LEU A   1     -29.879   8.169  -3.068  0.00  0.00    +0.238 C 
ATOM      8  O   LEU A   1     -30.121   9.330  -3.436  0.00  0.00    -0.274 OA
ATOM      9  N   SER A   2     -30.349   7.096  -3.717  0.00  0.00    -0.295 N 
ATOM     10  H   SER A   2     -30.266   6.152  -3.288  0.00  0.00    +0.150 HD
BRANCH   7  11
ATOM     11  CA  LEU A   1     -29.045   7.943  -1.813  0.00  0.00    +0.145 C 
BRANCH  11  12
ATOM     12  N   LEU A   1     -29.721   7.158  -0.810  0.00  0.00    -0.238 NA
ATOM     13  H   LEU A   1     -30.179   6.267  -1.088  0.00  0.00    +0.142 HD
ENDBRANCH  11  12
BRANCH  11  14
ATOM     14  CB  LEU A   1     -27.700   7.303  -2.170  0.00  0.00    +0.026 C 
BRANCH  14  15
ATOM     15  CG  LEU A   1     -27.012   7.986  -3.368  0.00  0.00    +0.002 C 
ATOM     16  CD2 LEU A   1     -26.449   9.303  -2.901  0.00  0.00    +0.000 C 
ATOM     17  CD1 LEU A   1     -25.933   7.079  -3.908  0.00  0.00    +0.000 C 
ENDBRANCH  14  15
ENDBRANCH  11  14
ENDBRANCH   7  11
ENDBRANCH   6   9
BRANCH   6  18
ATOM     18  CB  SER A   2     -29.906   7.464  -6.093  0.00  0.00    +0.166 C 
BRANCH  18  19
ATOM     19  OG  SER A   2     -28.923   6.421  -6.039  0.00  0.00    -0.380 OA
ATOM     20  H   SER A   2     -29.362   5.547  -6.195  0.00  0.00    +0.211 HD
ENDBRANCH  18  19
ENDBRANCH   6  18
ENDBRANCH   2   6
ENDBRANCH   1   4
BRANCH   1  21
ATOM     21  C   LEU A   3     -33.377   5.854  -8.562  0.00  0.00    +0.241 C 
ATOM     22  O   LEU A   3     -33.832   6.955  -8.908  0.00  0.00    -0.273 OA
ATOM     23  N   ALA A   4     -32.851   4.993  -9.408  0.00  0.00    -0.297 N 
ATOM     24  H   ALA A   4     -32.563   4.058  -9.054  0.00  0.00    +0.150 HD
BRANCH  23  25
ATOM     25  CA  ALA A   4     -32.655   5.299 -10.829  0.00  0.00    +0.149 C 
ATOM     26  CB  ALA A   4     -31.178   5.257 -11.156  0.00  0.00    +0.031 C 
BRANCH  25  27
ATOM     27  C   ALA A   4     -33.376   4.299 -11.696  0.00  0.00    +0.241 C 
ATOM     28  O   ALA A   4     -33.450   3.082 -11.403  0.00  0.00    -0.273 OA
ATOM     29  N   TRP A   5     -33.875   4.807 -12.811  0.00  0.00    -0.298 N 
ATOM     30  H   TRP A   5     -33.790   5.832 -12.967  0.00  0.00    +0.150 HD
BRANCH  29  31
ATOM     31  CA  TRP A   5     -34.536   4.007 -13.829  0.00  0.00    +0.141 C 
BRANCH  31  32
ATOM     32  C   TRP A   5     -34.183   4.540 -15.210  0.00  0.00    +0.227 C 
ATOM     33  O   TRP A   5     -34.016   5.724 -15.359  0.00  0.00    -0.286 OA
ENDBRANCH  31  32
BRANCH  31  34
ATOM     34  CB  TRP A   5     -36.061   4.086 -13.665  0.00  0.00    +0.056 C 
BRANCH  34  35
ATOM     35  CG  TRP A   5     -36.838   3.353 -14.776  0.00  0.00    -0.002 A 
ATOM     36  CD1 TRP A   5     -36.903   2.015 -15.008  0.00  0.00    +0.068 A 
ATOM     37  NE1 TRP A   5     -37.754   1.756 -16.062  0.00  0.00    -0.352 N 
ATOM     38  CE2 TRP A   5     -38.316   2.931 -16.469  0.00  0.00    +0.056 A 
ATOM     39  CZ2 TRP A   5     -39.240   3.190 -17.504  0.00  0.00    +0.017 A 
ATOM     40  CH2 TRP A   5     -39.599   4.471 -17.723  0.00  0.00    +0.001 A 
ATOM     41  CZ3 TRP A   5     -39.090   5.533 -16.932  0.00  0.00    +0.000 A 
ATOM     42  CE3 TRP A   5     -38.157   5.280 -15.911  0.00  0.00    +0.001 A 
ATOM     43  HE1 TRP A   5     -37.937   0.820 -16.478  0.00  0.00    +0.166 HD
ATOM     44  CD2 TRP A   5     -37.760   3.956 -15.677  0.00  0.00    +0.013 A 
ENDBRANCH  34  35
ENDBRANCH  31  34
ENDBRANCH  29  31
ENDBRANCH  25  27
ENDBRANCH  23  25
ENDBRANCH   1  21
BRANCH   1  45
ATOM     45  CB  LEU A   3     -34.945   5.216  -6.706  0.00  0.00    +0.029 C 
BRANCH  45  46
ATOM     46  CG  LEU A   3     -35.645   4.076  -7.490  0.00  0.00    +0.002 C 
ATOM     47  CD2 LEU A   3     -36.690   3.382  -6.630  0.00  0.00    +0.000 C 
ATOM     48  CD1 LEU A   3     -36.338   4.568  -8.737  0.00  0.00    +0.000 C 
ENDBRANCH  45  46
ENDBRANCH   1  45
TORSDOF 18
REMARK  Name = ../refined-set-2016/4v24/4v24_pocket.pdb
REMARK  307 active torsions:
REMARK  status: ('A' for Active; 'I' for Inactive)
REMARK    1  A    between atoms: _1  and  _3
REMARK    2  A    between atoms: _3  and  _4
REMARK    3  A    between atoms: _6  and  _8
REMARK    4  A    between atoms: _8  and  _9
REMARK    5  A    between atoms: _8  and  _11
REMARK    6  A    between atoms: _11  and  _12
REMARK    7  A    between atoms: _15  and  _17
REMARK    8  A    between atoms: _17  and  _18
REMARK    9  A    between atoms: _20  and  _22
REMARK   10  A    between atoms: _22  and  _23
REMARK   11  A    between atoms: _25  and  _27
REMARK   12  A    between atoms: _27  and  _28
REMARK   13  A    between atoms: _27  and  _30
REMARK   14  A    between atoms: _30  and  _31
REMARK   15  A    between atoms: _36  and  _38
REMARK   16  A    between atoms: _38  and  _39
REMARK   17  A    between atoms: _42  and  _44
REMARK   18  A    between atoms: _44  and  _45
REMARK   19  A    between atoms: _44  and  _47
REMARK   20  A    between atoms: _47  and  _48
REMARK   21  A    between atoms: _51  and  _53
REMARK   22  A    between atoms: _53  and  _54
REMARK   23  A    between atoms: _53  and  _56
REMARK   24  A    between atoms: _56  and  _57
REMARK   25  A    between atoms: _60  and  _62
REMARK   26  A    between atoms: _62  and  _63
REMARK   27  A    between atoms: _62  and  _65
REMARK   28  A    between atoms: _65  and  _66
REMARK   29  A    between atoms: _68  and  _70
REMARK   30  A    between atoms: _70  and  _71
REMARK   31  A    between atoms: _70  and  _73
REMARK   32  A    between atoms: _73  and  _74
REMARK   33  A    between atoms: _77  and  _79
REMARK   34  A    between atoms: _79  and  _80
REMARK   35  A    between atoms: _83  and  _85
REMARK   36  A    between atoms: _85  and  _86
REMARK   37  A    between atoms: _85  and  _88
REMARK   38  A    between atoms: _88  and  _89
REMARK   39  A    between atoms: _99  and  _101
REMARK   40  A    between atoms: _101  and  _102
REMARK   41  A    between atoms: _101  and  _104
REMARK   42  A    between atoms: _104  and  _105
REMARK   43  A    between atoms: _111  and  _113
REMARK   44  A    between atoms: _113  and  _114
REMARK   45  A    between atoms: _113  and  _116
REMARK   46  A    between atoms: _116  and  _117
REMARK   47  A    between atoms: _120  and  _122
REMARK   48  A    between atoms: _122  and  _123
REMARK   49  A    between atoms: _126  and  _128
REMARK   50  A    between atoms: _128  and  _129
REMARK   51  A    between atoms: _128  and  _131
REMARK   52  A    between atoms: _131  and  _132
REMARK   53  A    between atoms: _135  and  _137
REMARK   54  A    between atoms: _137  and  _138
REMARK   55  A    between atoms: _137  and  _140
REMARK   56  A    between atoms: _143  and  _145
REMARK   57  A    between atoms: _145  and  _146
REMARK   58  A    between atoms: _145  and  _148
REMARK   59  A    between atoms: _148  and  _149
REMARK   60  A    between atoms: _152  and  _154
REMARK   61  A    between atoms: _154  and  _155
REMARK   62  A    between atoms: _154  and  _157
REMARK   63  A    between atoms: _157  and  _158
REMARK   64  A    between atoms: _161  and  _163
REMARK   65  A    between atoms: _163  and  _164
REMARK   66  A    between atoms: _163  and  _166
REMARK   67  A    between atoms: _166  and  _167
REMARK   68  A    between atoms: _169  and  _171
REMARK   69  A    between atoms: _171  and  _172
REMARK   70  A    between atoms: _171  and  _174
REMARK   71  A    between atoms: _174  and  _175
REMARK   72  A    between atoms: _175  and  _176
REMARK   73  A    between atoms: _179  and  _181
REMARK   74  A    between atoms: _181  and  _182
REMARK   75  A    between atoms: _181  and  _184
REMARK   76  A    between atoms: _184  and  _185
REMARK   77  A    between atoms: _185  and  _186
REMARK   78  A    between atoms: _186  and  _187
REMARK   79  A    between atoms: _196  and  _198
REMARK   80  A    between atoms: _198  and  _199
REMARK   81  A    between atoms: _198  and  _201
REMARK   82  A    between atoms: _201  and  _202
REMARK   83  A    between atoms: _208  and  _210
REMARK   84  A    between atoms: _210  and  _211
REMARK   85  A    between atoms: _210  and  _213
REMARK   86  A    between atoms: _213  and  _214
REMARK   87  A    between atoms: _217  and  _219
REMARK   88  A    between atoms: _219  and  _220
REMARK   89  A    between atoms: _222  and  _224
REMARK   90  A    between atoms: _224  and  _225
REMARK   91  A    between atoms: _224  and  _227
REMARK   92  A    between atoms: _227  and  _228
REMARK   93  A    between atoms: _231  and  _233
REMARK   94  A    between atoms: _233  and  _234
REMARK   95  A    between atoms: _233  and  _236
REMARK   96  A    between atoms: _236  and  _237
REMARK   97  A    between atoms: _243  and  _245
REMARK   98  A    between atoms: _245  and  _246
REMARK   99  A    between atoms: _245  and  _248
REMARK  100  A    between atoms: _248  and  _249
REMARK  101  A    between atoms: _249  and  _250
REMARK  102  A    between atoms: _250  and  _251
REMARK  103  A    between atoms: _260  and  _262
REMARK  104  A    between atoms: _262  and  _263
REMARK  105  A    between atoms: _262  and  _265
REMARK  106  A    between atoms: _265  and  _266
REMARK  107  A    between atoms: _269  and  _271
REMARK  108  A    between atoms: _271  and  _272
REMARK  109  A    between atoms: _271  and  _274
REMARK  110  A    between atoms: _274  and  _275
REMARK  111  A    between atoms: _278  and  _280
REMARK  112  A    between atoms: _280  and  _281
REMARK  113  A    between atoms: _280  and  _283
REMARK  114  A    between atoms: _286  and  _288
REMARK  115  A    between atoms: _288  and  _289
REMARK  116  A    between atoms: _288  and  _291
REMARK  117  A    between atoms: _291  and  _292
REMARK  118  A    between atoms: _295  and  _297
REMARK  119  A    between atoms: _297  and  _298
REMARK  120  A    between atoms: _297  and  _300
REMARK  121  A    between atoms: _303  and  _305
REMARK  122  A    between atoms: _305  and  _306
REMARK  123  A    between atoms: _305  and  _308
REMARK  124  A    between atoms: _308  and  _309
REMARK  125  A    between atoms: _312  and  _314
REMARK  126  A    between atoms: _314  and  _315
REMARK  127  A    between atoms: _318  and  _320
REMARK  128  A    between atoms: _320  and  _321
REMARK  129  A    between atoms: _320  and  _323
REMARK  130  A    between atoms: _323  and  _324
REMARK  131  A    between atoms: _327  and  _329
REMARK  132  A    between atoms: _329  and  _330
REMARK  133  A    between atoms: _329  and  _332
REMARK  134  A    between atoms: _332  and  _333
REMARK  135  A    between atoms: _335  and  _337
REMARK  136  A    between atoms: _337  and  _338
REMARK  137  A    between atoms: _337  and  _340
REMARK  138  A    between atoms: _340  and  _341
REMARK  139  A    between atoms: _346  and  _348
REMARK  140  A    between atoms: _348  and  _349
REMARK  141  A    between atoms: _348  and  _351
REMARK  142  A    between atoms: _351  and  _352
REMARK  143  A    between atoms: _355  and  _357
REMARK  144  A    between atoms: _357  and  _358
REMARK  145  A    between atoms: _360  and  _362
REMARK  146  A    between atoms: _362  and  _363
REMARK  147  A    between atoms: _362  and  _365
REMARK  148  A    between atoms: _365  and  _366
REMARK  149  A    between atoms: _368  and  _370
REMARK  150  A    between atoms: _370  and  _371
REMARK  151  A    between atoms: _370  and  _373
REMARK  152  A    between atoms: _373  and  _374
REMARK  153  A    between atoms: _374  and  _375
REMARK  154  A    between atoms: _377  and  _379
REMARK  155  A    between atoms: _379  and  _380
REMARK  156  A    between atoms: _379  and  _382
REMARK  157  A    between atoms: _382  and  _383
REMARK  158  A    between atoms: _389  and  _391
REMARK  159  A    between atoms: _391  and  _392
REMARK  160  A    between atoms: _395  and  _397
REMARK  161  A    between atoms: _397  and  _398
REMARK  162  A    between atoms: _402  and  _403
REMARK  163  A    between atoms: _408  and  _410
REMARK  164  A    between atoms: _410  and  _411
REMARK  165  A    between atoms: _410  and  _413
REMARK  166  A    between atoms: _413  and  _414
REMARK  167  A    between atoms: _414  and  _415
REMARK  168  A    between atoms: _417  and  _419
REMARK  169  A    between atoms: _419  and  _420
REMARK  170  A    between atoms: _419  and  _422
REMARK  171  A    between atoms: _422  and  _423
REMARK  172  A    between atoms: _428  and  _430
REMARK  173  A    between atoms: _430  and  _431
REMARK  174  A    between atoms: _430  and  _433
REMARK  175  A    between atoms: _433  and  _434
REMARK  176  A    between atoms: _437  and  _439
REMARK  177  A    between atoms: _439  and  _440
REMARK  178  A    between atoms: _439  and  _442
REMARK  179  A    between atoms: _442  and  _443
REMARK  180  A    between atoms: _449  and  _451
REMARK  181  A    between atoms: _451  and  _452
REMARK  182  A    between atoms: _451  and  _454
REMARK  183  A    between atoms: _454  and  _455
REMARK  184  A    between atoms: _460  and  _461
REMARK  185  A    between atoms: _463  and  _465
REMARK  186  A    between atoms: _465  and  _466
REMARK  187  A    between atoms: _465  and  _468
REMARK  188  A    between atoms: _471  and  _473
REMARK  189  A    between atoms: _473  and  _474
REMARK  190  A    between atoms: _473  and  _476
REMARK  191  A    between atoms: _479  and  _481
REMARK  192  A    between atoms: _481  and  _482
REMARK  193  A    between atoms: _481  and  _484
REMARK  194  A    between atoms: _484  and  _485
REMARK  195  A    between atoms: _487  and  _489
REMARK  196  A    between atoms: _489  and  _490
REMARK  197  A    between atoms: _489  and  _492
REMARK  198  A    between atoms: _492  and  _493
REMARK  199  A    between atoms: _493  and  _494
REMARK  200  A    between atoms: _494  and  _495
REMARK  201  A    between atoms: _504  and  _506
REMARK  202  A    between atoms: _506  and  _507
REMARK  203  A    between atoms: _506  and  _509
REMARK  204  A    between atoms: _509  and  _510
REMARK  205  A    between atoms: _510  and  _511
REMARK  206  A    between atoms: _513  and  _515
REMARK  207  A    between atoms: _515  and  _516
REMARK  208  A    between atoms: _515  and  _518
REMARK  209  A    between atoms: _518  and  _519
REMARK  210  A    between atoms: _522  and  _524
REMARK  211  A    between atoms: _524  and  _525
REMARK  212  A    between atoms: _524  and  _527
REMARK  213  A    between atoms: _527  and  _528
REMARK  214  A    between atoms: _531  and  _533
REMARK  215  A    between atoms: _533  and  _534
REMARK  216  A    between atoms: _533  and  _536
REMARK  217  A    between atoms: _536  and  _537
REMARK  218  A    between atoms: _537  and  _538
REMARK  219  A    between atoms: _538  and  _539
REMARK  220  A    between atoms: _548  and  _550
REMARK  221  A    between atoms: _550  and  _551
REMARK  222  A    between atoms: _550  and  _553
REMARK  223  A    between atoms: _553  and  _554
REMARK  224  A    between atoms: _557  and  _559
REMARK  225  A    between atoms: _559  and  _560
REMARK  226  A    between atoms: _559  and  _562
REMARK  227  A    between atoms: _562  and  _563
REMARK  228  A    between atoms: _569  and  _571
REMARK  229  A    between atoms: _571  and  _572
REMARK  230  A    between atoms: _571  and  _574
REMARK  231  A    between atoms: _574  and  _575
REMARK  232  A    between atoms: _578  and  _580
REMARK  233  A    between atoms: _580  and  _581
REMARK  234  A    between atoms: _584  and  _586
REMARK  235  A    between atoms: _586  and  _587
REMARK  236  A    between atoms: _586  and  _589
REMARK  237  A    between atoms: _589  and  _590
REMARK  238  A    between atoms: _590  and  _591
REMARK  239  A    between atoms: _593  and  _595
REMARK  240  A    between atoms: _595  and  _596
REMARK  241  A    between atoms: _595  and  _598
REMARK  242  A    between atoms: _598  and  _599
REMARK  243  A    between atoms: _599  and  _600
REMARK  244  A    between atoms: _603  and  _605
REMARK  245  A    between atoms: _605  and  _606
REMARK  246  A    between atoms: _605  and  _608
REMARK  247  A    between atoms: _608  and  _609
REMARK  248  A    between atoms: _609  and  _610
REMARK  249  A    between atoms: _610  and  _611
REMARK  250  A    between atoms: _620  and  _622
REMARK  251  A    between atoms: _622  and  _623
REMARK  252  A    between atoms: _622  and  _625
REMARK  253  A    between atoms: _625  and  _626
REMARK  254  A    between atoms: _631  and  _633
REMARK  255  A    between atoms: _633  and  _634
REMARK  256  A    between atoms: _633  and  _636
REMARK  257  A    between atoms: _636  and  _637
REMARK  258  A    between atoms: _637  and  _638
REMARK  259  A    between atoms: _640  and  _642
REMARK  260  A    between atoms: _642  and  _643
REMARK  261  A    between atoms: _642  and  _645
REMARK  262  A    between atoms: _645  and  _646
REMARK  263  A    between atoms: _651  and  _652
REMARK  264  A    between atoms: _654  and  _656
REMARK  265  A    between atoms: _656  and  _657
REMARK  266  A    between atoms: _656  and  _659
REMARK  267  A    between atoms: _661  and  _663
REMARK  268  A    between atoms: _663  and  _664
REMARK  269  A    between atoms: _663  and  _666
REMARK  270  A    between atoms: _666  and  _667
REMARK  271  A    between atoms: _672  and  _673
REMARK  272  A    between atoms: _675  and  _677
REMARK  273  A    between atoms: _677  and  _678
REMARK  274  A    between atoms: _677  and  _680
REMARK  275  A    between atoms: _680  and  _681
REMARK  276  A    between atoms: _684  and  _686
REMARK  277  A    between atoms: _686  and  _687
REMARK  278  A    between atoms: _686  and  _689
REMARK  279  A    between atoms: _692  and  _694
REMARK  280  A    between atoms: _694  and  _695
REMARK  281  A    between atoms: _694  and  _697
REMARK  282  A    between atoms: _697  and  _698
REMARK  283  A    between atoms: _703  and  _704
REMARK  284  A    between atoms: _706  and  _708
REMARK  285  A    between atoms: _708  and  _709
REMARK  286  A    between atoms: _708  and  _711
REMARK  287  A    between atoms: _711  and  _712
REMARK  288  A    between atoms: _718  and  _720
REMARK  289  A    between atoms: _720  and  _721
REMARK  290  A    between atoms: _724  and  _726
REMARK  291  A    between atoms: _726  and  _727
REMARK  292  A    between atoms: _726  and  _729
REMARK  293  A    between atoms: _732  and  _734
REMARK  294  A    between atoms: _734  and  _735
REMARK  295  A    between atoms: _734  and  _737
REMARK  296  A    between atoms: _737  and  _738
REMARK  297  A    between atoms: _741  and  _743
REMARK  298  A    between atoms: _743  and  _744
REMARK  299  A    between atoms: _746  and  _748
REMARK  300  A    between atoms: _748  and  _749
REMARK  301  A    between atoms: _748  and  _751
REMARK  302  A    between atoms: _751  and  _752
REMARK  303  A    between atoms: _752  and  _753
REMARK  304  A    between atoms: _756  and  _758
REMARK  305  A    between atoms: _758  and  _759
REMARK  306  A    between atoms: _758  and  _761
REMARK  307  A    between atoms: _761  and  _762
REMARK                            x       y       z     vdW  Elec       q    Type
REMARK                         _______ _______ _______ _____ _____    ______ ____
ROOT
ATOM      1  CA  ASP A   4     -28.644   0.545 -17.357  0.00  0.00    +0.160 C 
ENDROOT
BRANCH   1   4
ATOM      2  C   ALA A   3     -29.113   1.174 -15.052  0.00  0.00    +0.241 C 
ATOM      3  O   ALA A   3     -28.453   0.232 -14.604  0.00  0.00    -0.273 OA
ATOM      4  N   ASP A   4     -29.261   1.396 -16.344  0.00  0.00    -0.297 N 
ATOM      5  H   ASP A   4     -29.837   2.205 -16.651  0.00  0.00    +0.150 HD
BRANCH   2   6
ATOM      6  CA  ALA A   3     -29.825   2.155 -14.103  0.00  0.00    +0.149 C 
ATOM      7  CB  ALA A   3     -31.269   1.699 -13.809  0.00  0.00    +0.031 C 
BRANCH   6  10
ATOM      8  C   ILE A   2     -28.662   4.143 -14.784  0.00  0.00    +0.241 C 
ATOM      9  O   ILE A   2     -27.605   3.618 -14.501  0.00  0.00    -0.273 OA
ATOM     10  N   ALA A   3     -29.811   3.501 -14.632  0.00  0.00    -0.297 N 
ATOM     11  H   ALA A   3     -30.704   3.966 -14.893  0.00  0.00    +0.150 HD
BRANCH   8  12
ATOM     12  CA  ILE A   2     -28.694   5.541 -15.344  0.00  0.00    +0.148 C 
BRANCH  12  14
ATOM     13  C   PHE A   1     -29.354   4.982 -17.610  0.00  0.00    +0.239 C 
ATOM     14  N   ILE A   2     -29.587   5.679 -16.491  0.00  0.00    -0.297 N 
ATOM     15  H   ILE A   2     -30.405   6.319 -16.439  0.00  0.00    +0.150 HD
ATOM     16  O   PHE A   1     -28.401   4.179 -17.715  0.00  0.00    -0.274 OA
BRANCH  13  17
ATOM     17  CA  PHE A   1     -30.310   5.219 -18.777  0.00  0.00    +0.149 C 
BRANCH  17  18
ATOM     18  N   PHE A   1     -31.710   5.113 -18.370  0.00  0.00    -0.238 NA
ATOM     19  H   PHE A   1     -32.359   5.880 -18.637  0.00  0.00    +0.142 HD
ENDBRANCH  17  18
BRANCH  17  20
ATOM     20  CB  PHE A   1     -30.063   6.608 -19.381  0.00  0.00    +0.053 C 
BRANCH  20  21
ATOM     21  CG  PHE A   1     -28.676   6.803 -19.954  0.00  0.00    -0.020 A 
ATOM     22  CD2 PHE A   1     -27.588   7.053 -19.142  0.00  0.00    -0.004 A 
ATOM     23  CE2 PHE A   1     -26.327   7.242 -19.690  0.00  0.00    -0.000 A 
ATOM     24  CZ  PHE A   1     -26.150   7.217 -21.058  0.00  0.00    -0.000 A 
ATOM     25  CE1 PHE A   1     -27.223   6.996 -21.877  0.00  0.00    -0.000 A 
ATOM     26  CD1 PHE A   1     -28.492   6.814 -21.316  0.00  0.00    -0.004 A 
ENDBRANCH  20  21
ENDBRANCH  17  20
ENDBRANCH  13  17
ENDBRANCH  12  14
BRANCH  12  27
ATOM     27  CB  ILE A   2     -28.984   6.606 -14.246  0.00  0.00    +0.027 C 
ATOM     28  CG2 ILE A   2     -28.180   6.327 -12.985  0.00  0.00    +0.002 C 
BRANCH  27  29
ATOM     29  CG1 ILE A   2     -28.611   8.016 -14.772  0.00  0.00    +0.002 C 
ATOM     30  CD1 ILE A   2     -29.012   9.172 -13.855  0.00  0.00    +0.000 C 
ENDBRANCH  27  29
ENDBRANCH  12  27
ENDBRANCH   8  12
ENDBRANCH   6  10
ENDBRANCH   2   6
ENDBRANCH   1   4
BRANCH   1  31
ATOM     31  C   ASP A   4     -27.132   0.667 -17.282  0.00  0.00    +0.241 C 
ATOM     32  N   VAL A   5     -26.658   1.868 -16.968  0.00  0.00    -0.297 N 
ATOM     33  H   VAL A   5     -27.327   2.654 -16.844  0.00  0.00    +0.150 HD
ATOM     34  O   ASP A   4     -26.427  -0.314 -17.500  0.00  0.00    -0.273 OA
BRANCH  32  35
ATOM     35  CA  VAL A   5     -25.233   2.124 -16.791  0.00  0.00    +0.149 C 
BRANCH  35  36
ATOM     36  C   VAL A   5     -24.760   1.428 -15.536  0.00  0.00    +0.241 C 
ATOM     37  N   ASP A   6     -25.546   1.493 -14.449  0.00  0.00    -0.297 N 
ATOM     38  H   ASP A   6     -26.411   2.070 -14.471  0.00  0.00    +0.150 HD
ATOM     39  O   VAL A   5     -23.718   0.786 -15.573  0.00  0.00    -0.273 OA
BRANCH  37  40
ATOM     40  CA  ASP A   6     -25.192   0.755 -13.231  0.00  0.00    +0.160 C 
BRANCH  40  41
ATOM     41  C   ASP A   6     -25.018  -0.734 -13.540  0.00  0.00    +0.241 C 
ATOM     42  O   ASP A   6     -24.031  -1.331 -13.120  0.00  0.00    -0.273 OA
ATOM     43  N   LEU A   7     -25.938  -1.310 -14.311  0.00  0.00    -0.298 N 
ATOM     44  H   LEU A   7     -26.731  -0.732 -14.656  0.00  0.00    +0.150 HD
BRANCH  43  45
ATOM     45  CA  LEU A   7     -25.880  -2.737 -14.698  0.00  0.00    +0.137 C 
BRANCH  45  46
ATOM     46  C   LEU A   7     -24.647  -3.063 -15.545  0.00  0.00    +0.227 C 
ATOM     47  O   LEU A   7     -23.869  -3.923 -15.184  0.00  0.00    -0.286 OA
ENDBRANCH  45  46
BRANCH  45  48
ATOM     48  CB  LEU A   7     -27.147  -3.141 -15.447  0.00  0.00    +0.028 C 
BRANCH  48  49
ATOM     49  CG  LEU A   7     -27.290  -4.582 -15.972  0.00  0.00    +0.002 C 
ATOM     50  CD2 LEU A   7     -27.285  -5.609 -14.861  0.00  0.00    +0.000 C 
ATOM     51  CD1 LEU A   7     -28.578  -4.700 -16.767  0.00  0.00    +0.000 C 
ENDBRANCH  48  49
ENDBRANCH  45  48
ENDBRANCH  43  45
ENDBRANCH  40  41
BRANCH  40  52
ATOM     52  CB  ASP A   6     -26.224   0.952 -12.106  0.00  0.00    +0.143 C 
BRANCH  52  53
ATOM     53  CG  ASP A   6     -26.118   2.288 -11.425  0.00  0.00    +0.367 C 
ATOM     54  OD2 ASP A   6     -25.019   2.649 -10.947  0.00  0.00    -0.246 OA
ATOM     55  OD1 ASP A   6     -27.154   3.015 -11.332  0.00  0.00    -0.246 OA
ENDBRANCH  52  53
ENDBRANCH  40  52
ENDBRANCH  37  40
ENDBRANCH  35  36
BRANCH  35  56
ATOM     56  CB  VAL A   5     -24.908   3.620 -16.734  0.00  0.00    +0.027 C 
ATOM     57  CG2 VAL A   5     -23.486   3.854 -16.281  0.00  0.00    +0.002 C 
ATOM     58  CG1 VAL A   5     -25.129   4.251 -18.096  0.00  0.00    +0.002 C 
ENDBRANCH  35  56
ENDBRANCH  32  35
ENDBRANCH   1  31
BRANCH   1  59
ATOM     59  CB  ASP A   4     -29.126   0.896 -18.787  0.00  0.00    +0.143 C 
BRANCH  59  60
ATOM     60  CG  ASP A   4     -30.514   0.285 -19.143  0.00  0.00    +0.367 C 
ATOM     61  OD2 ASP A   4     -31.146  -0.356 -18.281  0.00  0.00    -0.246 OA
ATOM     62  OD1 ASP A   4     -30.960   0.445 -20.313  0.00  0.00    -0.246 OA
ENDBRANCH  59  60
ENDBRANCH   1  59
TORSDOF 25
REMARK  Name = ../refined-set-2016/4v24/4v24_pocket.pdb
REMARK  307 active torsions:
REMARK  status: ('A' for Active; 'I' for Inactive)
REMARK    1  A    between atoms: _1  and  _3
REMARK    2  A    between atoms: _3  and  _4
REMARK    3  A    between atoms: _6  and  _8
REMARK    4  A    between atoms: _8  and  _9
REMARK    5  A    between atoms: _8  and  _11
REMARK    6  A    between atoms: _11  and  _12
REMARK    7  A    between atoms: _15  and  _17
REMARK    8  A    between atoms: _17  and  _18
REMARK    9  A    between atoms: _20  and  _22
REMARK   10  A    between atoms: _22  and  _23
REMARK   11  A    between atoms: _25  and  _27
REMARK   12  A    between atoms: _27  and  _28
REMARK   13  A    between atoms: _27  and  _30
REMARK   14  A    between atoms: _30  and  _31
REMARK   15  A    between atoms: _36  and  _38
REMARK   16  A    between atoms: _38  and  _39
REMARK   17  A    between atoms: _42  and  _44
REMARK   18  A    between atoms: _44  and  _45
REMARK   19  A    between atoms: _44  and  _47
REMARK   20  A    between atoms: _47  and  _48
REMARK   21  A    between atoms: _51  and  _53
REMARK   22  A    between atoms: _53  and  _54
REMARK   23  A    between atoms: _53  and  _56
REMARK   24  A    between atoms: _56  and  _57
REMARK   25  A    between atoms: _60  and  _62
REMARK   26  A    between atoms: _62  and  _63
REMARK   27  A    between atoms: _62  and  _65
REMARK   28  A    between atoms: _65  and  _66
REMARK   29  A    between atoms: _68  and  _70
REMARK   30  A    between atoms: _70  and  _71
REMARK   31  A    between atoms: _70  and  _73
REMARK   32  A    between atoms: _73  and  _74
REMARK   33  A    between atoms: _77  and  _79
REMARK   34  A    between atoms: _79  and  _80
REMARK   35  A    between atoms: _83  and  _85
REMARK   36  A    between atoms: _85  and  _86
REMARK   37  A    between atoms: _85  and  _88
REMARK   38  A    between atoms: _88  and  _89
REMARK   39  A    between atoms: _99  and  _101
REMARK   40  A    between atoms: _101  and  _102
REMARK   41  A    between atoms: _101  and  _104
REMARK   42  A    between atoms: _104  and  _105
REMARK   43  A    between atoms: _111  and  _113
REMARK   44  A    between atoms: _113  and  _114
REMARK   45  A    between atoms: _113  and  _116
REMARK   46  A    between atoms: _116  and  _117
REMARK   47  A    between atoms: _120  and  _122
REMARK   48  A    between atoms: _122  and  _123
REMARK   49  A    between atoms: _126  and  _128
REMARK   50  A    between atoms: _128  and  _129
REMARK   51  A    between atoms: _128  and  _131
REMARK   52  A    between atoms: _131  and  _132
REMARK   53  A    between atoms: _135  and  _137
REMARK   54  A    between atoms: _137  and  _138
REMARK   55  A    between atoms: _137  and  _140
REMARK   56  A    between atoms: _143  and  _145
REMARK   57  A    between atoms: _145  and  _146
REMARK   58  A    between atoms: _145  and  _148
REMARK   59  A    between atoms: _148  and  _149
REMARK   60  A    between atoms: _152  and  _154
REMARK   61  A    between atoms: _154  and  _155
REMARK   62  A    between atoms: _154  and  _157
REMARK   63  A    between atoms: _157  and  _158
REMARK   64  A    between atoms: _161  and  _163
REMARK   65  A    between atoms: _163  and  _164
REMARK   66  A    between atoms: _163  and  _166
REMARK   67  A    between atoms: _166  and  _167
REMARK   68  A    between atoms: _169  and  _171
REMARK   69  A    between atoms: _171  and  _172
REMARK   70  A    between atoms: _171  and  _174
REMARK   71  A    between atoms: _174  and  _175
REMARK   72  A    between atoms: _175  and  _176
REMARK   73  A    between atoms: _179  and  _181
REMARK   74  A    between atoms: _181  and  _182
REMARK   75  A    between atoms: _181  and  _184
REMARK   76  A    between atoms: _184  and  _185
REMARK   77  A    between atoms: _185  and  _186
REMARK   78  A    between atoms: _186  and  _187
REMARK   79  A    between atoms: _196  and  _198
REMARK   80  A    between atoms: _198  and  _199
REMARK   81  A    between atoms: _198  and  _201
REMARK   82  A    between atoms: _201  and  _202
REMARK   83  A    between atoms: _208  and  _210
REMARK   84  A    between atoms: _210  and  _211
REMARK   85  A    between atoms: _210  and  _213
REMARK   86  A    between atoms: _213  and  _214
REMARK   87  A    between atoms: _217  and  _219
REMARK   88  A    between atoms: _219  and  _220
REMARK   89  A    between atoms: _222  and  _224
REMARK   90  A    between atoms: _224  and  _225
REMARK   91  A    between atoms: _224  and  _227
REMARK   92  A    between atoms: _227  and  _228
REMARK   93  A    between atoms: _231  and  _233
REMARK   94  A    between atoms: _233  and  _234
REMARK   95  A    between atoms: _233  and  _236
REMARK   96  A    between atoms: _236  and  _237
REMARK   97  A    between atoms: _243  and  _245
REMARK   98  A    between atoms: _245  and  _246
REMARK   99  A    between atoms: _245  and  _248
REMARK  100  A    between atoms: _248  and  _249
REMARK  101  A    between atoms: _249  and  _250
REMARK  102  A    between atoms: _250  and  _251
REMARK  103  A    between atoms: _260  and  _262
REMARK  104  A    between atoms: _262  and  _263
REMARK  105  A    between atoms: _262  and  _265
REMARK  106  A    between atoms: _265  and  _266
REMARK  107  A    between atoms: _269  and  _271
REMARK  108  A    between atoms: _271  and  _272
REMARK  109  A    between atoms: _271  and  _274
REMARK  110  A    between atoms: _274  and  _275
REMARK  111  A    between atoms: _278  and  _280
REMARK  112  A    between atoms: _280  and  _281
REMARK  113  A    between atoms: _280  and  _283
REMARK  114  A    between atoms: _286  and  _288
REMARK  115  A    between atoms: _288  and  _289
REMARK  116  A    between atoms: _288  and  _291
REMARK  117  A    between atoms: _291  and  _292
REMARK  118  A    between atoms: _295  and  _297
REMARK  119  A    between atoms: _297  and  _298
REMARK  120  A    between atoms: _297  and  _300
REMARK  121  A    between atoms: _303  and  _305
REMARK  122  A    between atoms: _305  and  _306
REMARK  123  A    between atoms: _305  and  _308
REMARK  124  A    between atoms: _308  and  _309
REMARK  125  A    between atoms: _312  and  _314
REMARK  126  A    between atoms: _314  and  _315
REMARK  127  A    between atoms: _318  and  _320
REMARK  128  A    between atoms: _320  and  _321
REMARK  129  A    between atoms: _320  and  _323
REMARK  130  A    between atoms: _323  and  _324
REMARK  131  A    between atoms: _327  and  _329
REMARK  132  A    between atoms: _329  and  _330
REMARK  133  A    between atoms: _329  and  _332
REMARK  134  A    between atoms: _332  and  _333
REMARK  135  A    between atoms: _335  and  _337
REMARK  136  A    between atoms: _337  and  _338
REMARK  137  A    between atoms: _337  and  _340
REMARK  138  A    between atoms: _340  and  _341
REMARK  139  A    between atoms: _346  and  _348
REMARK  140  A    between atoms: _348  and  _349
REMARK  141  A    between atoms: _348  and  _351
REMARK  142  A    between atoms: _351  and  _352
REMARK  143  A    between atoms: _355  and  _357
REMARK  144  A    between atoms: _357  and  _358
REMARK  145  A    between atoms: _360  and  _362
REMARK  146  A    between atoms: _362  and  _363
REMARK  147  A    between atoms: _362  and  _365
REMARK  148  A    between atoms: _365  and  _366
REMARK  149  A    between atoms: _368  and  _370
REMARK  150  A    between atoms: _370  and  _371
REMARK  151  A    between atoms: _370  and  _373
REMARK  152  A    between atoms: _373  and  _374
REMARK  153  A    between atoms: _374  and  _375
REMARK  154  A    between atoms: _377  and  _379
REMARK  155  A    between atoms: _379  and  _380
REMARK  156  A    between atoms: _379  and  _382
REMARK  157  A    between atoms: _382  and  _383
REMARK  158  A    between atoms: _389  and  _391
REMARK  159  A    between atoms: _391  and  _392
REMARK  160  A    between atoms: _395  and  _397
REMARK  161  A    between atoms: _397  and  _398
REMARK  162  A    between atoms: _402  and  _403
REMARK  163  A    between atoms: _408  and  _410
REMARK  164  A    between atoms: _410  and  _411
REMARK  165  A    between atoms: _410  and  _413
REMARK  166  A    between atoms: _413  and  _414
REMARK  167  A    between atoms: _414  and  _415
REMARK  168  A    between atoms: _417  and  _419
REMARK  169  A    between atoms: _419  and  _420
REMARK  170  A    between atoms: _419  and  _422
REMARK  171  A    between atoms: _422  and  _423
REMARK  172  A    between atoms: _428  and  _430
REMARK  173  A    between atoms: _430  and  _431
REMARK  174  A    between atoms: _430  and  _433
REMARK  175  A    between atoms: _433  and  _434
REMARK  176  A    between atoms: _437  and  _439
REMARK  177  A    between atoms: _439  and  _440
REMARK  178  A    between atoms: _439  and  _442
REMARK  179  A    between atoms: _442  and  _443
REMARK  180  A    between atoms: _449  and  _451
REMARK  181  A    between atoms: _451  and  _452
REMARK  182  A    between atoms: _451  and  _454
REMARK  183  A    between atoms: _454  and  _455
REMARK  184  A    between atoms: _460  and  _461
REMARK  185  A    between atoms: _463  and  _465
REMARK  186  A    between atoms: _465  and  _466
REMARK  187  A    between atoms: _465  and  _468
REMARK  188  A    between atoms: _471  and  _473
REMARK  189  A    between atoms: _473  and  _474
REMARK  190  A    between atoms: _473  and  _476
REMARK  191  A    between atoms: _479  and  _481
REMARK  192  A    between atoms: _481  and  _482
REMARK  193  A    between atoms: _481  and  _484
REMARK  194  A    between atoms: _484  and  _485
REMARK  195  A    between atoms: _487  and  _489
REMARK  196  A    between atoms: _489  and  _490
REMARK  197  A    between atoms: _489  and  _492
REMARK  198  A    between atoms: _492  and  _493
REMARK  199  A    between atoms: _493  and  _494
REMARK  200  A    between atoms: _494  and  _495
REMARK  201  A    between atoms: _504  and  _506
REMARK  202  A    between atoms: _506  and  _507
REMARK  203  A    between atoms: _506  and  _509
REMARK  204  A    between atoms: _509  and  _510
REMARK  205  A    between atoms: _510  and  _511
REMARK  206  A    between atoms: _513  and  _515
REMARK  207  A    between atoms: _515  and  _516
REMARK  208  A    between atoms: _515  and  _518
REMARK  209  A    between atoms: _518  and  _519
REMARK  210  A    between atoms: _522  and  _524
REMARK  211  A    between atoms: _524  and  _525
REMARK  212  A    between atoms: _524  and  _527
REMARK  213  A    between atoms: _527  and  _528
REMARK  214  A    between atoms: _531  and  _533
REMARK  215  A    between atoms: _533  and  _534
REMARK  216  A    between atoms: _533  and  _536
REMARK  217  A    between atoms: _536  and  _537
REMARK  218  A    between atoms: _537  and  _538
REMARK  219  A    between atoms: _538  and  _539
REMARK  220  A    between atoms: _548  and  _550
REMARK  221  A    between atoms: _550  and  _551
REMARK  222  A    between atoms: _550  and  _553
REMARK  223  A    between atoms: _553  and  _554
REMARK  224  A    between atoms: _557  and  _559
REMARK  225  A    between atoms: _559  and  _560
REMARK  226  A    between atoms: _559  and  _562
REMARK  227  A    between atoms: _562  and  _563
REMARK  228  A    between atoms: _569  and  _571
REMARK  229  A    between atoms: _571  and  _572
REMARK  230  A    between atoms: _571  and  _574
REMARK  231  A    between atoms: _574  and  _575
REMARK  232  A    between atoms: _578  and  _580
REMARK  233  A    between atoms: _580  and  _581
REMARK  234  A    between atoms: _584  and  _586
REMARK  235  A    between atoms: _586  and  _587
REMARK  236  A    between atoms: _586  and  _589
REMARK  237  A    between atoms: _589  and  _590
REMARK  238  A    between atoms: _590  and  _591
REMARK  239  A    between atoms: _593  and  _595
REMARK  240  A    between atoms: _595  and  _596
REMARK  241  A    between atoms: _595  and  _598
REMARK  242  A    between atoms: _598  and  _599
REMARK  243  A    between atoms: _599  and  _600
REMARK  244  A    between atoms: _603  and  _605
REMARK  245  A    between atoms: _605  and  _606
REMARK  246  A    between atoms: _605  and  _608
REMARK  247  A    between atoms: _608  and  _609
REMARK  248  A    between atoms: _609  and  _610
REMARK  249  A    between atoms: _610  and  _611
REMARK  250  A    between atoms: _620  and  _622
REMARK  251  A    between atoms: _622  and  _623
REMARK  252  A    between atoms: _622  and  _625
REMARK  253  A    between atoms: _625  and  _626
REMARK  254  A    between atoms: _631  and  _633
REMARK  255  A    between atoms: _633  and  _634
REMARK  256  A    between atoms: _633  and  _636
REMARK  257  A    between atoms: _636  and  _637
REMARK  258  A    between atoms: _637  and  _638
REMARK  259  A    between atoms: _640  and  _642
REMARK  260  A    between atoms: _642  and  _643
REMARK  261  A    between atoms: _642  and  _645
REMARK  262  A    between atoms: _645  and  _646
REMARK  263  A    between atoms: _651  and  _652
REMARK  264  A    between atoms: _654  and  _656
REMARK  265  A    between atoms: _656  and  _657
REMARK  266  A    between atoms: _656  and  _659
REMARK  267  A    between atoms: _661  and  _663
REMARK  268  A    between atoms: _663  and  _664
REMARK  269  A    between atoms: _663  and  _666
REMARK  270  A    between atoms: _666  and  _667
REMARK  271  A    between atoms: _672  and  _673
REMARK  272  A    between atoms: _675  and  _677
REMARK  273  A    between atoms: _677  and  _678
REMARK  274  A    between atoms: _677  and  _680
REMARK  275  A    between atoms: _680  and  _681
REMARK  276  A    between atoms: _684  and  _686
REMARK  277  A    between atoms: _686  and  _687
REMARK  278  A    between atoms: _686  and  _689
REMARK  279  A    between atoms: _692  and  _694
REMARK  280  A    between atoms: _694  and  _695
REMARK  281  A    between atoms: _694  and  _697
REMARK  282  A    between atoms: _697  and  _698
REMARK  283  A    between atoms: _703  and  _704
REMARK  284  A    between atoms: _706  and  _708
REMARK  285  A    between atoms: _708  and  _709
REMARK  286  A    between atoms: _708  and  _711
REMARK  287  A    between atoms: _711  and  _712
REMARK  288  A    between atoms: _718  and  _720
REMARK  289  A    between atoms: _720  and  _721
REMARK  290  A    between atoms: _724  and  _726
REMARK  291  A    between atoms: _726  and  _727
REMARK  292  A    between atoms: _726  and  _729
REMARK  293  A    between atoms: _732  and  _734
REMARK  294  A    between atoms: _734  and  _735
REMARK  295  A    between atoms: _734  and  _737
REMARK  296  A    between atoms: _737  and  _738
REMARK  297  A    between atoms: _741  and  _743
REMARK  298  A    between atoms: _743  and  _744
REMARK  299  A    between atoms: _746  and  _748
REMARK  300  A    between atoms: _748  and  _749
REMARK  301  A    between atoms: _748  and  _751
REMARK  302  A    between atoms: _751  and  _752
REMARK  303  A    between atoms: _752  and  _753
REMARK  304  A    between atoms: _756  and  _758
REMARK  305  A    between atoms: _758  and  _759
REMARK  306  A    between atoms: _758  and  _761
REMARK  307  A    between atoms: _761  and  _762
REMARK                            x       y       z     vdW  Elec       q    Type
REMARK                         _______ _______ _______ _____ _____    ______ ____
ROOT
ATOM      1  CA  SER A   1     -20.681  -1.079 -15.260  0.00  0.00    +0.163 C 
ENDROOT
BRANCH   1   2
ATOM      2  N   SER A   1     -21.942  -1.435 -15.904  0.00  0.00    -0.237 NA
ATOM      3  H   SER A   1     -22.814  -0.952 -15.609  0.00  0.00    +0.142 HD
ENDBRANCH   1   2
BRANCH   1   4
ATOM      4  C   SER A   1     -20.168  -2.173 -14.294  0.00  0.00    +0.227 C 
ATOM      5  O   SER A   1     -19.005  -2.153 -13.895  0.00  0.00    -0.287 OA
ENDBRANCH   1   4
BRANCH   1   6
ATOM      6  CB  SER A   1     -20.801   0.261 -14.547  0.00  0.00    +0.162 C 
BRANCH   6   7
ATOM      7  OG  SER A   1     -21.375   0.069 -13.258  0.00  0.00    -0.380 OA
ATOM      8  H   SER A   1     -22.274  -0.333 -13.355  0.00  0.00    +0.211 HD
ENDBRANCH   6   7
ENDBRANCH   1   6
TORSDOF 4
REMARK  Name = ../refined-set-2016/4v24/4v24_pocket.pdb
REMARK  307 active torsions:
REMARK  status: ('A' for Active; 'I' for Inactive)
REMARK    1  A    between atoms: _1  and  _3
REMARK    2  A    between atoms: _3  and  _4
REMARK    3  A    between atoms: _6  and  _8
REMARK    4  A    between atoms: _8  and  _9
REMARK    5  A    between atoms: _8  and  _11
REMARK    6  A    between atoms: _11  and  _12
REMARK    7  A    between atoms: _15  and  _17
REMARK    8  A    between atoms: _17  and  _18
REMARK    9  A    between atoms: _20  and  _22
REMARK   10  A    between atoms: _22  and  _23
REMARK   11  A    between atoms: _25  and  _27
REMARK   12  A    between atoms: _27  and  _28
REMARK   13  A    between atoms: _27  and  _30
REMARK   14  A    between atoms: _30  and  _31
REMARK   15  A    between atoms: _36  and  _38
REMARK   16  A    between atoms: _38  and  _39
REMARK   17  A    between atoms: _42  and  _44
REMARK   18  A    between atoms: _44  and  _45
REMARK   19  A    between atoms: _44  and  _47
REMARK   20  A    between atoms: _47  and  _48
REMARK   21  A    between atoms: _51  and  _53
REMARK   22  A    between atoms: _53  and  _54
REMARK   23  A    between atoms: _53  and  _56
REMARK   24  A    between atoms: _56  and  _57
REMARK   25  A    between atoms: _60  and  _62
REMARK   26  A    between atoms: _62  and  _63
REMARK   27  A    between atoms: _62  and  _65
REMARK   28  A    between atoms: _65  and  _66
REMARK   29  A    between atoms: _68  and  _70
REMARK   30  A    between atoms: _70  and  _71
REMARK   31  A    between atoms: _70  and  _73
REMARK   32  A    between atoms: _73  and  _74
REMARK   33  A    between atoms: _77  and  _79
REMARK   34  A    between atoms: _79  and  _80
REMARK   35  A    between atoms: _83  and  _85
REMARK   36  A    between atoms: _85  and  _86
REMARK   37  A    between atoms: _85  and  _88
REMARK   38  A    between atoms: _88  and  _89
REMARK   39  A    between atoms: _99  and  _101
REMARK   40  A    between atoms: _101  and  _102
REMARK   41  A    between atoms: _101  and  _104
REMARK   42  A    between atoms: _104  and  _105
REMARK   43  A    between atoms: _111  and  _113
REMARK   44  A    between atoms: _113  and  _114
REMARK   45  A    between atoms: _113  and  _116
REMARK   46  A    between atoms: _116  and  _117
REMARK   47  A    between atoms: _120  and  _122
REMARK   48  A    between atoms: _122  and  _123
REMARK   49  A    between atoms: _126  and  _128
REMARK   50  A    between atoms: _128  and  _129
REMARK   51  A    between atoms: _128  and  _131
REMARK   52  A    between atoms: _131  and  _132
REMARK   53  A    between atoms: _135  and  _137
REMARK   54  A    between atoms: _137  and  _138
REMARK   55  A    between atoms: _137  and  _140
REMARK   56  A    between atoms: _143  and  _145
REMARK   57  A    between atoms: _145  and  _146
REMARK   58  A    between atoms: _145  and  _148
REMARK   59  A    between atoms: _148  and  _149
REMARK   60  A    between atoms: _152  and  _154
REMARK   61  A    between atoms: _154  and  _155
REMARK   62  A    between atoms: _154  and  _157
REMARK   63  A    between atoms: _157  and  _158
REMARK   64  A    between atoms: _161  and  _163
REMARK   65  A    between atoms: _163  and  _164
REMARK   66  A    between atoms: _163  and  _166
REMARK   67  A    between atoms: _166  and  _167
REMARK   68  A    between atoms: _169  and  _171
REMARK   69  A    between atoms: _171  and  _172
REMARK   70  A    between atoms: _171  and  _174
REMARK   71  A    between atoms: _174  and  _175
REMARK   72  A    between atoms: _175  and  _176
REMARK   73  A    between atoms: _179  and  _181
REMARK   74  A    between atoms: _181  and  _182
REMARK   75  A    between atoms: _181  and  _184
REMARK   76  A    between atoms: _184  and  _185
REMARK   77  A    between atoms: _185  and  _186
REMARK   78  A    between atoms: _186  and  _187
REMARK   79  A    between atoms: _196  and  _198
REMARK   80  A    between atoms: _198  and  _199
REMARK   81  A    between atoms: _198  and  _201
REMARK   82  A    between atoms: _201  and  _202
REMARK   83  A    between atoms: _208  and  _210
REMARK   84  A    between atoms: _210  and  _211
REMARK   85  A    between atoms: _210  and  _213
REMARK   86  A    between atoms: _213  and  _214
REMARK   87  A    between atoms: _217  and  _219
REMARK   88  A    between atoms: _219  and  _220
REMARK   89  A    between atoms: _222  and  _224
REMARK   90  A    between atoms: _224  and  _225
REMARK   91  A    between atoms: _224  and  _227
REMARK   92  A    between atoms: _227  and  _228
REMARK   93  A    between atoms: _231  and  _233
REMARK   94  A    between atoms: _233  and  _234
REMARK   95  A    between atoms: _233  and  _236
REMARK   96  A    between atoms: _236  and  _237
REMARK   97  A    between atoms: _243  and  _245
REMARK   98  A    between atoms: _245  and  _246
REMARK   99  A    between atoms: _245  and  _248
REMARK  100  A    between atoms: _248  and  _249
REMARK  101  A    between atoms: _249  and  _250
REMARK  102  A    between atoms: _250  and  _251
REMARK  103  A    between atoms: _260  and  _262
REMARK  104  A    between atoms: _262  and  _263
REMARK  105  A    between atoms: _262  and  _265
REMARK  106  A    between atoms: _265  and  _266
REMARK  107  A    between atoms: _269  and  _271
REMARK  108  A    between atoms: _271  and  _272
REMARK  109  A    between atoms: _271  and  _274
REMARK  110  A    between atoms: _274  and  _275
REMARK  111  A    between atoms: _278  and  _280
REMARK  112  A    between atoms: _280  and  _281
REMARK  113  A    between atoms: _280  and  _283
REMARK  114  A    between atoms: _286  and  _288
REMARK  115  A    between atoms: _288  and  _289
REMARK  116  A    between atoms: _288  and  _291
REMARK  117  A    between atoms: _291  and  _292
REMARK  118  A    between atoms: _295  and  _297
REMARK  119  A    between atoms: _297  and  _298
REMARK  120  A    between atoms: _297  and  _300
REMARK  121  A    between atoms: _303  and  _305
REMARK  122  A    between atoms: _305  and  _306
REMARK  123  A    between atoms: _305  and  _308
REMARK  124  A    between atoms: _308  and  _309
REMARK  125  A    between atoms: _312  and  _314
REMARK  126  A    between atoms: _314  and  _315
REMARK  127  A    between atoms: _318  and  _320
REMARK  128  A    between atoms: _320  and  _321
REMARK  129  A    between atoms: _320  and  _323
REMARK  130  A    between atoms: _323  and  _324
REMARK  131  A    between atoms: _327  and  _329
REMARK  132  A    between atoms: _329  and  _330
REMARK  133  A    between atoms: _329  and  _332
REMARK  134  A    between atoms: _332  and  _333
REMARK  135  A    between atoms: _335  and  _337
REMARK  136  A    between atoms: _337  and  _338
REMARK  137  A    between atoms: _337  and  _340
REMARK  138  A    between atoms: _340  and  _341
REMARK  139  A    between atoms: _346  and  _348
REMARK  140  A    between atoms: _348  and  _349
REMARK  141  A    between atoms: _348  and  _351
REMARK  142  A    between atoms: _351  and  _352
REMARK  143  A    between atoms: _355  and  _357
REMARK  144  A    between atoms: _357  and  _358
REMARK  145  A    between atoms: _360  and  _362
REMARK  146  A    between atoms: _362  and  _363
REMARK  147  A    between atoms: _362  and  _365
REMARK  148  A    between atoms: _365  and  _366
REMARK  149  A    between atoms: _368  and  _370
REMARK  150  A    between atoms: _370  and  _371
REMARK  151  A    between atoms: _370  and  _373
REMARK  152  A    between atoms: _373  and  _374
REMARK  153  A    between atoms: _374  and  _375
REMARK  154  A    between atoms: _377  and  _379
REMARK  155  A    between atoms: _379  and  _380
REMARK  156  A    between atoms: _379  and  _382
REMARK  157  A    between atoms: _382  and  _383
REMARK  158  A    between atoms: _389  and  _391
REMARK  159  A    between atoms: _391  and  _392
REMARK  160  A    between atoms: _395  and  _397
REMARK  161  A    between atoms: _397  and  _398
REMARK  162  A    between atoms: _402  and  _403
REMARK  163  A    between atoms: _408  and  _410
REMARK  164  A    between atoms: _410  and  _411
REMARK  165  A    between atoms: _410  and  _413
REMARK  166  A    between atoms: _413  and  _414
REMARK  167  A    between atoms: _414  and  _415
REMARK  168  A    between atoms: _417  and  _419
REMARK  169  A    between atoms: _419  and  _420
REMARK  170  A    between atoms: _419  and  _422
REMARK  171  A    between atoms: _422  and  _423
REMARK  172  A    between atoms: _428  and  _430
REMARK  173  A    between atoms: _430  and  _431
REMARK  174  A    between atoms: _430  and  _433
REMARK  175  A    between atoms: _433  and  _434
REMARK  176  A    between atoms: _437  and  _439
REMARK  177  A    between atoms: _439  and  _440
REMARK  178  A    between atoms: _439  and  _442
REMARK  179  A    between atoms: _442  and  _443
REMARK  180  A    between atoms: _449  and  _451
REMARK  181  A    between atoms: _451  and  _452
REMARK  182  A    between atoms: _451  and  _454
REMARK  183  A    between atoms: _454  and  _455
REMARK  184  A    between atoms: _460  and  _461
REMARK  185  A    between atoms: _463  and  _465
REMARK  186  A    between atoms: _465  and  _466
REMARK  187  A    between atoms: _465  and  _468
REMARK  188  A    between atoms: _471  and  _473
REMARK  189  A    between atoms: _473  and  _474
REMARK  190  A    between atoms: _473  and  _476
REMARK  191  A    between atoms: _479  and  _481
REMARK  192  A    between atoms: _481  and  _482
REMARK  193  A    between atoms: _481  and  _484
REMARK  194  A    between atoms: _484  and  _485
REMARK  195  A    between atoms: _487  and  _489
REMARK  196  A    between atoms: _489  and  _490
REMARK  197  A    between atoms: _489  and  _492
REMARK  198  A    between atoms: _492  and  _493
REMARK  199  A    between atoms: _493  and  _494
REMARK  200  A    between atoms: _494  and  _495
REMARK  201  A    between atoms: _504  and  _506
REMARK  202  A    between atoms: _506  and  _507
REMARK  203  A    between atoms: _506  and  _509
REMARK  204  A    between atoms: _509  and  _510
REMARK  205  A    between atoms: _510  and  _511
REMARK  206  A    between atoms: _513  and  _515
REMARK  207  A    between atoms: _515  and  _516
REMARK  208  A    between atoms: _515  and  _518
REMARK  209  A    between atoms: _518  and  _519
REMARK  210  A    between atoms: _522  and  _524
REMARK  211  A    between atoms: _524  and  _525
REMARK  212  A    between atoms: _524  and  _527
REMARK  213  A    between atoms: _527  and  _528
REMARK  214  A    between atoms: _531  and  _533
REMARK  215  A    between atoms: _533  and  _534
REMARK  216  A    between atoms: _533  and  _536
REMARK  217  A    between atoms: _536  and  _537
REMARK  218  A    between atoms: _537  and  _538
REMARK  219  A    between atoms: _538  and  _539
REMARK  220  A    between atoms: _548  and  _550
REMARK  221  A    between atoms: _550  and  _551
REMARK  222  A    between atoms: _550  and  _553
REMARK  223  A    between atoms: _553  and  _554
REMARK  224  A    between atoms: _557  and  _559
REMARK  225  A    between atoms: _559  and  _560
REMARK  226  A    between atoms: _559  and  _562
REMARK  227  A    between atoms: _562  and  _563
REMARK  228  A    between atoms: _569  and  _571
REMARK  229  A    between atoms: _571  and  _572
REMARK  230  A    between atoms: _571  and  _574
REMARK  231  A    between atoms: _574  and  _575
REMARK  232  A    between atoms: _578  and  _580
REMARK  233  A    between atoms: _580  and  _581
REMARK  234  A    between atoms: _584  and  _586
REMARK  235  A    between atoms: _586  and  _587
REMARK  236  A    between atoms: _586  and  _589
REMARK  237  A    between atoms: _589  and  _590
REMARK  238  A    between atoms: _590  and  _591
REMARK  239  A    between atoms: _593  and  _595
REMARK  240  A    between atoms: _595  and  _596
REMARK  241  A    between atoms: _595  and  _598
REMARK  242  A    between atoms: _598  and  _599
REMARK  243  A    between atoms: _599  and  _600
REMARK  244  A    between atoms: _603  and  _605
REMARK  245  A    between atoms: _605  and  _606
REMARK  246  A    between atoms: _605  and  _608
REMARK  247  A    between atoms: _608  and  _609
REMARK  248  A    between atoms: _609  and  _610
REMARK  249  A    between atoms: _610  and  _611
REMARK  250  A    between atoms: _620  and  _622
REMARK  251  A    between atoms: _622  and  _623
REMARK  252  A    between atoms: _622  and  _625
REMARK  253  A    between atoms: _625  and  _626
REMARK  254  A    between atoms: _631  and  _633
REMARK  255  A    between atoms: _633  and  _634
REMARK  256  A    between atoms: _633  and  _636
REMARK  257  A    between atoms: _636  and  _637
REMARK  258  A    between atoms: _637  and  _638
REMARK  259  A    between atoms: _640  and  _642
REMARK  260  A    between atoms: _642  and  _643
REMARK  261  A    between atoms: _642  and  _645
REMARK  262  A    between atoms: _645  and  _646
REMARK  263  A    between atoms: _651  and  _652
REMARK  264  A    between atoms: _654  and  _656
REMARK  265  A    between atoms: _656  and  _657
REMARK  266  A    between atoms: _656  and  _659
REMARK  267  A    between atoms: _661  and  _663
REMARK  268  A    between atoms: _663  and  _664
REMARK  269  A    between atoms: _663  and  _666
REMARK  270  A    between atoms: _666  and  _667
REMARK  271  A    between atoms: _672  and  _673
REMARK  272  A    between atoms: _675  and  _677
REMARK  273  A    between atoms: _677  and  _678
REMARK  274  A    between atoms: _677  and  _680
REMARK  275  A    between atoms: _680  and  _681
REMARK  276  A    between atoms: _684  and  _686
REMARK  277  A    between atoms: _686  and  _687
REMARK  278  A    between atoms: _686  and  _689
REMARK  279  A    between atoms: _692  and  _694
REMARK  280  A    between atoms: _694  and  _695
REMARK  281  A    between atoms: _694  and  _697
REMARK  282  A    between atoms: _697  and  _698
REMARK  283  A    between atoms: _703  and  _704
REMARK  284  A    between atoms: _706  and  _708
REMARK  285  A    between atoms: _708  and  _709
REMARK  286  A    between atoms: _708  and  _711
REMARK  287  A    between atoms: _711  and  _712
REMARK  288  A    between atoms: _718  and  _720
REMARK  289  A    between atoms: _720  and  _721
REMARK  290  A    between atoms: _724  and  _726
REMARK  291  A    between atoms: _726  and  _727
REMARK  292  A    between atoms: _726  and  _729
REMARK  293  A    between atoms: _732  and  _734
REMARK  294  A    between atoms: _734  and  _735
REMARK  295  A    between atoms: _734  and  _737
REMARK  296  A    between atoms: _737  and  _738
REMARK  297  A    between atoms: _741  and  _743
REMARK  298  A    between atoms: _743  and  _744
REMARK  299  A    between atoms: _746  and  _748
REMARK  300  A    between atoms: _748  and  _749
REMARK  301  A    between atoms: _748  and  _751
REMARK  302  A    between atoms: _751  and  _752
REMARK  303  A    between atoms: _752  and  _753
REMARK  304  A    between atoms: _756  and  _758
REMARK  305  A    between atoms: _758  and  _759
REMARK  306  A    between atoms: _758  and  _761
REMARK  307  A    between atoms: _761  and  _762
REMARK                            x       y       z     vdW  Elec       q    Type
REMARK                         _______ _______ _______ _____ _____    ______ ____
ROOT
ATOM      1  CA  GLU A   1     -15.210   4.677 -10.528  0.00  0.00    +0.134 C 
ENDROOT
BRANCH   1   2
ATOM      2  N   GLU A   1     -14.039   3.829 -10.296  0.00  0.00    -0.239 NA
ATOM      3  H   GLU A   1     -13.221   4.211  -9.780  0.00  0.00    +0.142 HD
ENDBRANCH   1   2
BRANCH   1   4
ATOM      4  C   GLU A   1     -15.425   5.058 -12.007  0.00  0.00    +0.224 C 
ATOM      5  O   GLU A   1     -16.542   5.404 -12.438  0.00  0.00    -0.287 OA
ENDBRANCH   1   4
BRANCH   1   6
ATOM      6  CB  GLU A   1     -15.119   5.943  -9.669  0.00  0.00    +0.037 C 
BRANCH   6   7
ATOM      7  CG  GLU A   1     -16.501   6.491  -9.300  0.00  0.00    +0.116 C 
BRANCH   7   8
ATOM      8  CD  GLU A   1     -16.445   7.649  -8.309  0.00  0.00    +0.365 C 
ATOM      9  OE2 GLU A   1     -17.446   7.877  -7.602  0.00  0.00    -0.246 OA
ATOM     10  OE1 GLU A   1     -15.413   8.337  -8.229  0.00  0.00    -0.246 OA
ENDBRANCH   7   8
ENDBRANCH   6   7
ENDBRANCH   1   6
TORSDOF 5
REMARK  Name = ../refined-set-2016/4v24/4v24_pocket.pdb
REMARK  307 active torsions:
REMARK  status: ('A' for Active; 'I' for Inactive)
REMARK    1  A    between atoms: _1  and  _3
REMARK    2  A    between atoms: _3  and  _4
REMARK    3  A    between atoms: _6  and  _8
REMARK    4  A    between atoms: _8  and  _9
REMARK    5  A    between atoms: _8  and  _11
REMARK    6  A    between atoms: _11  and  _12
REMARK    7  A    between atoms: _15  and  _17
REMARK    8  A    between atoms: _17  and  _18
REMARK    9  A    between atoms: _20  and  _22
REMARK   10  A    between atoms: _22  and  _23
REMARK   11  A    between atoms: _25  and  _27
REMARK   12  A    between atoms: _27  and  _28
REMARK   13  A    between atoms: _27  and  _30
REMARK   14  A    between atoms: _30  and  _31
REMARK   15  A    between atoms: _36  and  _38
REMARK   16  A    between atoms: _38  and  _39
REMARK   17  A    between atoms: _42  and  _44
REMARK   18  A    between atoms: _44  and  _45
REMARK   19  A    between atoms: _44  and  _47
REMARK   20  A    between atoms: _47  and  _48
REMARK   21  A    between atoms: _51  and  _53
REMARK   22  A    between atoms: _53  and  _54
REMARK   23  A    between atoms: _53  and  _56
REMARK   24  A    between atoms: _56  and  _57
REMARK   25  A    between atoms: _60  and  _62
REMARK   26  A    between atoms: _62  and  _63
REMARK   27  A    between atoms: _62  and  _65
REMARK   28  A    between atoms: _65  and  _66
REMARK   29  A    between atoms: _68  and  _70
REMARK   30  A    between atoms: _70  and  _71
REMARK   31  A    between atoms: _70  and  _73
REMARK   32  A    between atoms: _73  and  _74
REMARK   33  A    between atoms: _77  and  _79
REMARK   34  A    between atoms: _79  and  _80
REMARK   35  A    between atoms: _83  and  _85
REMARK   36  A    between atoms: _85  and  _86
REMARK   37  A    between atoms: _85  and  _88
REMARK   38  A    between atoms: _88  and  _89
REMARK   39  A    between atoms: _99  and  _101
REMARK   40  A    between atoms: _101  and  _102
REMARK   41  A    between atoms: _101  and  _104
REMARK   42  A    between atoms: _104  and  _105
REMARK   43  A    between atoms: _111  and  _113
REMARK   44  A    between atoms: _113  and  _114
REMARK   45  A    between atoms: _113  and  _116
REMARK   46  A    between atoms: _116  and  _117
REMARK   47  A    between atoms: _120  and  _122
REMARK   48  A    between atoms: _122  and  _123
REMARK   49  A    between atoms: _126  and  _128
REMARK   50  A    between atoms: _128  and  _129
REMARK   51  A    between atoms: _128  and  _131
REMARK   52  A    between atoms: _131  and  _132
REMARK   53  A    between atoms: _135  and  _137
REMARK   54  A    between atoms: _137  and  _138
REMARK   55  A    between atoms: _137  and  _140
REMARK   56  A    between atoms: _143  and  _145
REMARK   57  A    between atoms: _145  and  _146
REMARK   58  A    between atoms: _145  and  _148
REMARK   59  A    between atoms: _148  and  _149
REMARK   60  A    between atoms: _152  and  _154
REMARK   61  A    between atoms: _154  and  _155
REMARK   62  A    between atoms: _154  and  _157
REMARK   63  A    between atoms: _157  and  _158
REMARK   64  A    between atoms: _161  and  _163
REMARK   65  A    between atoms: _163  and  _164
REMARK   66  A    between atoms: _163  and  _166
REMARK   67  A    between atoms: _166  and  _167
REMARK   68  A    between atoms: _169  and  _171
REMARK   69  A    between atoms: _171  and  _172
REMARK   70  A    between atoms: _171  and  _174
REMARK   71  A    between atoms: _174  and  _175
REMARK   72  A    between atoms: _175  and  _176
REMARK   73  A    between atoms: _179  and  _181
REMARK   74  A    between atoms: _181  and  _182
REMARK   75  A    between atoms: _181  and  _184
REMARK   76  A    between atoms: _184  and  _185
REMARK   77  A    between atoms: _185  and  _186
REMARK   78  A    between atoms: _186  and  _187
REMARK   79  A    between atoms: _196  and  _198
REMARK   80  A    between atoms: _198  and  _199
REMARK   81  A    between atoms: _198  and  _201
REMARK   82  A    between atoms: _201  and  _202
REMARK   83  A    between atoms: _208  and  _210
REMARK   84  A    between atoms: _210  and  _211
REMARK   85  A    between atoms: _210  and  _213
REMARK   86  A    between atoms: _213  and  _214
REMARK   87  A    between atoms: _217  and  _219
REMARK   88  A    between atoms: _219  and  _220
REMARK   89  A    between atoms: _222  and  _224
REMARK   90  A    between atoms: _224  and  _225
REMARK   91  A    between atoms: _224  and  _227
REMARK   92  A    between atoms: _227  and  _228
REMARK   93  A    between atoms: _231  and  _233
REMARK   94  A    between atoms: _233  and  _234
REMARK   95  A    between atoms: _233  and  _236
REMARK   96  A    between atoms: _236  and  _237
REMARK   97  A    between atoms: _243  and  _245
REMARK   98  A    between atoms: _245  and  _246
REMARK   99  A    between atoms: _245  and  _248
REMARK  100  A    between atoms: _248  and  _249
REMARK  101  A    between atoms: _249  and  _250
REMARK  102  A    between atoms: _250  and  _251
REMARK  103  A    between atoms: _260  and  _262
REMARK  104  A    between atoms: _262  and  _263
REMARK  105  A    between atoms: _262  and  _265
REMARK  106  A    between atoms: _265  and  _266
REMARK  107  A    between atoms: _269  and  _271
REMARK  108  A    between atoms: _271  and  _272
REMARK  109  A    between atoms: _271  and  _274
REMARK  110  A    between atoms: _274  and  _275
REMARK  111  A    between atoms: _278  and  _280
REMARK  112  A    between atoms: _280  and  _281
REMARK  113  A    between atoms: _280  and  _283
REMARK  114  A    between atoms: _286  and  _288
REMARK  115  A    between atoms: _288  and  _289
REMARK  116  A    between atoms: _288  and  _291
REMARK  117  A    between atoms: _291  and  _292
REMARK  118  A    between atoms: _295  and  _297
REMARK  119  A    between atoms: _297  and  _298
REMARK  120  A    between atoms: _297  and  _300
REMARK  121  A    between atoms: _303  and  _305
REMARK  122  A    between atoms: _305  and  _306
REMARK  123  A    between atoms: _305  and  _308
REMARK  124  A    between atoms: _308  and  _309
REMARK  125  A    between atoms: _312  and  _314
REMARK  126  A    between atoms: _314  and  _315
REMARK  127  A    between atoms: _318  and  _320
REMARK  128  A    between atoms: _320  and  _321
REMARK  129  A    between atoms: _320  and  _323
REMARK  130  A    between atoms: _323  and  _324
REMARK  131  A    between atoms: _327  and  _329
REMARK  132  A    between atoms: _329  and  _330
REMARK  133  A    between atoms: _329  and  _332
REMARK  134  A    between atoms: _332  and  _333
REMARK  135  A    between atoms: _335  and  _337
REMARK  136  A    between atoms: _337  and  _338
REMARK  137  A    between atoms: _337  and  _340
REMARK  138  A    between atoms: _340  and  _341
REMARK  139  A    between atoms: _346  and  _348
REMARK  140  A    between atoms: _348  and  _349
REMARK  141  A    between atoms: _348  and  _351
REMARK  142  A    between atoms: _351  and  _352
REMARK  143  A    between atoms: _355  and  _357
REMARK  144  A    between atoms: _357  and  _358
REMARK  145  A    between atoms: _360  and  _362
REMARK  146  A    between atoms: _362  and  _363
REMARK  147  A    between atoms: _362  and  _365
REMARK  148  A    between atoms: _365  and  _366
REMARK  149  A    between atoms: _368  and  _370
REMARK  150  A    between atoms: _370  and  _371
REMARK  151  A    between atoms: _370  and  _373
REMARK  152  A    between atoms: _373  and  _374
REMARK  153  A    between atoms: _374  and  _375
REMARK  154  A    between atoms: _377  and  _379
REMARK  155  A    between atoms: _379  and  _380
REMARK  156  A    between atoms: _379  and  _382
REMARK  157  A    between atoms: _382  and  _383
REMARK  158  A    between atoms: _389  and  _391
REMARK  159  A    between atoms: _391  and  _392
REMARK  160  A    between atoms: _395  and  _397
REMARK  161  A    between atoms: _397  and  _398
REMARK  162  A    between atoms: _402  and  _403
REMARK  163  A    between atoms: _408  and  _410
REMARK  164  A    between atoms: _410  and  _411
REMARK  165  A    between atoms: _410  and  _413
REMARK  166  A    between atoms: _413  and  _414
REMARK  167  A    between atoms: _414  and  _415
REMARK  168  A    between atoms: _417  and  _419
REMARK  169  A    between atoms: _419  and  _420
REMARK  170  A    between atoms: _419  and  _422
REMARK  171  A    between atoms: _422  and  _423
REMARK  172  A    between atoms: _428  and  _430
REMARK  173  A    between atoms: _430  and  _431
REMARK  174  A    between atoms: _430  and  _433
REMARK  175  A    between atoms: _433  and  _434
REMARK  176  A    between atoms: _437  and  _439
REMARK  177  A    between atoms: _439  and  _440
REMARK  178  A    between atoms: _439  and  _442
REMARK  179  A    between atoms: _442  and  _443
REMARK  180  A    between atoms: _449  and  _451
REMARK  181  A    between atoms: _451  and  _452
REMARK  182  A    between atoms: _451  and  _454
REMARK  183  A    between atoms: _454  and  _455
REMARK  184  A    between atoms: _460  and  _461
REMARK  185  A    between atoms: _463  and  _465
REMARK  186  A    between atoms: _465  and  _466
REMARK  187  A    between atoms: _465  and  _468
REMARK  188  A    between atoms: _471  and  _473
REMARK  189  A    between atoms: _473  and  _474
REMARK  190  A    between atoms: _473  and  _476
REMARK  191  A    between atoms: _479  and  _481
REMARK  192  A    between atoms: _481  and  _482
REMARK  193  A    between atoms: _481  and  _484
REMARK  194  A    between atoms: _484  and  _485
REMARK  195  A    between atoms: _487  and  _489
REMARK  196  A    between atoms: _489  and  _490
REMARK  197  A    between atoms: _489  and  _492
REMARK  198  A    between atoms: _492  and  _493
REMARK  199  A    between atoms: _493  and  _494
REMARK  200  A    between atoms: _494  and  _495
REMARK  201  A    between atoms: _504  and  _506
REMARK  202  A    between atoms: _506  and  _507
REMARK  203  A    between atoms: _506  and  _509
REMARK  204  A    between atoms: _509  and  _510
REMARK  205  A    between atoms: _510  and  _511
REMARK  206  A    between atoms: _513  and  _515
REMARK  207  A    between atoms: _515  and  _516
REMARK  208  A    between atoms: _515  and  _518
REMARK  209  A    between atoms: _518  and  _519
REMARK  210  A    between atoms: _522  and  _524
REMARK  211  A    between atoms: _524  and  _525
REMARK  212  A    between atoms: _524  and  _527
REMARK  213  A    between atoms: _527  and  _528
REMARK  214  A    between atoms: _531  and  _533
REMARK  215  A    between atoms: _533  and  _534
REMARK  216  A    between atoms: _533  and  _536
REMARK  217  A    between atoms: _536  and  _537
REMARK  218  A    between atoms: _537  and  _538
REMARK  219  A    between atoms: _538  and  _539
REMARK  220  A    between atoms: _548  and  _550
REMARK  221  A    between atoms: _550  and  _551
REMARK  222  A    between atoms: _550  and  _553
REMARK  223  A    between atoms: _553  and  _554
REMARK  224  A    between atoms: _557  and  _559
REMARK  225  A    between atoms: _559  and  _560
REMARK  226  A    between atoms: _559  and  _562
REMARK  227  A    between atoms: _562  and  _563
REMARK  228  A    between atoms: _569  and  _571
REMARK  229  A    between atoms: _571  and  _572
REMARK  230  A    between atoms: _571  and  _574
REMARK  231  A    between atoms: _574  and  _575
REMARK  232  A    between atoms: _578  and  _580
REMARK  233  A    between atoms: _580  and  _581
REMARK  234  A    between atoms: _584  and  _586
REMARK  235  A    between atoms: _586  and  _587
REMARK  236  A    between atoms: _586  and  _589
REMARK  237  A    between atoms: _589  and  _590
REMARK  238  A    between atoms: _590  and  _591
REMARK  239  A    between atoms: _593  and  _595
REMARK  240  A    between atoms: _595  and  _596
REMARK  241  A    between atoms: _595  and  _598
REMARK  242  A    between atoms: _598  and  _599
REMARK  243  A    between atoms: _599  and  _600
REMARK  244  A    between atoms: _603  and  _605
REMARK  245  A    between atoms: _605  and  _606
REMARK  246  A    between atoms: _605  and  _608
REMARK  247  A    between atoms: _608  and  _609
REMARK  248  A    between atoms: _609  and  _610
REMARK  249  A    between atoms: _610  and  _611
REMARK  250  A    between atoms: _620  and  _622
REMARK  251  A    between atoms: _622  and  _623
REMARK  252  A    between atoms: _622  and  _625
REMARK  253  A    between atoms: _625  and  _626
REMARK  254  A    between atoms: _631  and  _633
REMARK  255  A    between atoms: _633  and  _634
REMARK  256  A    between atoms: _633  and  _636
REMARK  257  A    between atoms: _636  and  _637
REMARK  258  A    between atoms: _637  and  _638
REMARK  259  A    between atoms: _640  and  _642
REMARK  260  A    between atoms: _642  and  _643
REMARK  261  A    between atoms: _642  and  _645
REMARK  262  A    between atoms: _645  and  _646
REMARK  263  A    between atoms: _651  and  _652
REMARK  264  A    between atoms: _654  and  _656
REMARK  265  A    between atoms: _656  and  _657
REMARK  266  A    between atoms: _656  and  _659
REMARK  267  A    between atoms: _661  and  _663
REMARK  268  A    between atoms: _663  and  _664
REMARK  269  A    between atoms: _663  and  _666
REMARK  270  A    between atoms: _666  and  _667
REMARK  271  A    between atoms: _672  and  _673
REMARK  272  A    between atoms: _675  and  _677
REMARK  273  A    between atoms: _677  and  _678
REMARK  274  A    between atoms: _677  and  _680
REMARK  275  A    between atoms: _680  and  _681
REMARK  276  A    between atoms: _684  and  _686
REMARK  277  A    between atoms: _686  and  _687
REMARK  278  A    between atoms: _686  and  _689
REMARK  279  A    between atoms: _692  and  _694
REMARK  280  A    between atoms: _694  and  _695
REMARK  281  A    between atoms: _694  and  _697
REMARK  282  A    between atoms: _697  and  _698
REMARK  283  A    between atoms: _703  and  _704
REMARK  284  A    between atoms: _706  and  _708
REMARK  285  A    between atoms: _708  and  _709
REMARK  286  A    between atoms: _708  and  _711
REMARK  287  A    between atoms: _711  and  _712
REMARK  288  A    between atoms: _718  and  _720
REMARK  289  A    between atoms: _720  and  _721
REMARK  290  A    between atoms: _724  and  _726
REMARK  291  A    between atoms: _726  and  _727
REMARK  292  A    between atoms: _726  and  _729
REMARK  293  A    between atoms: _732  and  _734
REMARK  294  A    between atoms: _734  and  _735
REMARK  295  A    between atoms: _734  and  _737
REMARK  296  A    between atoms: _737  and  _738
REMARK  297  A    between atoms: _741  and  _743
REMARK  298  A    between atoms: _743  and  _744
REMARK  299  A    between atoms: _746  and  _748
REMARK  300  A    between atoms: _748  and  _749
REMARK  301  A    between atoms: _748  and  _751
REMARK  302  A    between atoms: _751  and  _752
REMARK  303  A    between atoms: _752  and  _753
REMARK  304  A    between atoms: _756  and  _758
REMARK  305  A    between atoms: _758  and  _759
REMARK  306  A    between atoms: _758  and  _761
REMARK  307  A    between atoms: _761  and  _762
REMARK                            x       y       z     vdW  Elec       q    Type
REMARK                         _______ _______ _______ _____ _____    ______ ____
ROOT
ATOM      1  C   ARG A   1     -17.826   2.800 -15.230  0.00  0.00    +0.238 C 
ATOM      2  N   PHE A   2     -18.235   3.835 -14.516  0.00  0.00    -0.297 N 
ATOM      3  H   PHE A   2     -17.639   4.192 -13.742  0.00  0.00    +0.150 HD
ATOM      4  O   ARG A   1     -18.431   2.418 -16.197  0.00  0.00    -0.274 OA
ENDROOT
BRANCH   1   5
ATOM      5  CA  ARG A   1     -16.506   2.149 -14.866  0.00  0.00    +0.145 C 
BRANCH   5   6
ATOM      6  N   ARG A   1     -15.567   3.099 -14.318  0.00  0.00    -0.238 NA
ATOM      7  H   ARG A   1     -15.112   2.899 -13.404  0.00  0.00    +0.142 HD
ENDBRANCH   5   6
BRANCH   5   8
ATOM      8  CB  ARG A   1     -16.705   0.928 -13.937  0.00  0.00    +0.030 C 
BRANCH   8   9
ATOM      9  CG  ARG A   1     -17.521   1.141 -12.663  0.00  0.00    +0.045 C 
BRANCH   9  10
ATOM     10  CD  ARG A   1     -17.405  -0.119 -11.813  0.00  0.00    +0.174 C 
BRANCH  10  11
ATOM     11  NE  ARG A   1     -18.311  -0.136 -10.695  0.00  0.00    -0.265 N 
ATOM     12  CZ  ARG A   1     -18.104   0.485  -9.548  0.00  0.00    +0.342 C 
ATOM     13  NH2 ARG A   1     -19.018   0.377  -8.589  0.00  0.00    -0.292 N 
ATOM     14 HH21 ARG A   1     -18.875   0.858  -7.678  0.00  0.00    +0.255 HD
ATOM     15 HH22 ARG A   1     -19.876  -0.188  -8.750  0.00  0.00    +0.255 HD
ATOM     16  NH1 ARG A   1     -16.997   1.206  -9.339  0.00  0.00    -0.292 N 
ATOM     17 HH11 ARG A   1     -16.854   1.687  -8.428  0.00  0.00    +0.255 HD
ATOM     18 HH12 ARG A   1     -16.279   1.286 -10.087  0.00  0.00    +0.255 HD
ATOM     19  HE  ARG A   1     -19.193  -0.677 -10.798  0.00  0.00    +0.259 HD
ENDBRANCH  10  11
ENDBRANCH   9  10
ENDBRANCH   8   9
ENDBRANCH   5   8
ENDBRANCH   1   5
BRANCH   2  20
ATOM     20  CA  PHE A   2     -19.517   4.487 -14.800  0.00  0.00    +0.153 C 
BRANCH  20  21
ATOM     21  C   PHE A   2     -19.419   5.404 -16.014  0.00  0.00    +0.241 C 
ATOM     22  N   THR A   3     -18.250   5.931 -16.264  0.00  0.00    -0.296 N 
ATOM     23  H   THR A   3     -17.458   5.756 -15.613  0.00  0.00    +0.150 HD
ATOM     24  O   PHE A   2     -20.371   5.639 -16.715  0.00  0.00    -0.273 OA
BRANCH  22  25
ATOM     25  CA  THR A   3     -18.042   6.763 -17.445  0.00  0.00    +0.164 C 
BRANCH  25  26
ATOM     26  CB  THR A   3     -16.757   7.568 -17.213  0.00  0.00    +0.136 C 
ATOM     27  CG2 THR A   3     -16.343   8.337 -18.427  0.00  0.00    +0.034 C 
BRANCH  26  28
ATOM     28  OG1 THR A   3     -16.998   8.471 -16.128  0.00  0.00    -0.382 OA
ATOM     29  HG1 THR A   3     -17.232   7.955 -15.316  0.00  0.00    +0.210 HD
ENDBRANCH  26  28
ENDBRANCH  25  26
BRANCH  25  30
ATOM     30  C   THR A   3     -18.012   5.932 -18.709  0.00  0.00    +0.229 C 
ATOM     31  O   THR A   3     -18.632   6.261 -19.724  0.00  0.00    -0.286 OA
ENDBRANCH  25  30
ENDBRANCH  22  25
ENDBRANCH  20  21
BRANCH  20  32
ATOM     32  CB  PHE A   2     -20.050   5.243 -13.553  0.00  0.00    +0.055 C 
BRANCH  32  33
ATOM     33  CG  PHE A   2     -20.299   4.352 -12.358  0.00  0.00    -0.020 A 
ATOM     34  CD2 PHE A   2     -19.636   4.570 -11.143  0.00  0.00    -0.004 A 
ATOM     35  CE2 PHE A   2     -19.860   3.748 -10.052  0.00  0.00    -0.000 A 
ATOM     36  CZ  PHE A   2     -20.789   2.715 -10.134  0.00  0.00    -0.000 A 
ATOM     37  CE1 PHE A   2     -21.444   2.480 -11.326  0.00  0.00    -0.000 A 
ATOM     38  CD1 PHE A   2     -21.201   3.305 -12.431  0.00  0.00    -0.004 A 
ENDBRANCH  32  33
ENDBRANCH  20  32
ENDBRANCH   2  20
TORSDOF 14
REMARK  Name = ../refined-set-2016/4v24/4v24_pocket.pdb
REMARK  307 active torsions:
REMARK  status: ('A' for Active; 'I' for Inactive)
REMARK    1  A    between atoms: _1  and  _3
REMARK    2  A    between atoms: _3  and  _4
REMARK    3  A    between atoms: _6  and  _8
REMARK    4  A    between atoms: _8  and  _9
REMARK    5  A    between atoms: _8  and  _11
REMARK    6  A    between atoms: _11  and  _12
REMARK    7  A    between atoms: _15  and  _17
REMARK    8  A    between atoms: _17  and  _18
REMARK    9  A    between atoms: _20  and  _22
REMARK   10  A    between atoms: _22  and  _23
REMARK   11  A    between atoms: _25  and  _27
REMARK   12  A    between atoms: _27  and  _28
REMARK   13  A    between atoms: _27  and  _30
REMARK   14  A    between atoms: _30  and  _31
REMARK   15  A    between atoms: _36  and  _38
REMARK   16  A    between atoms: _38  and  _39
REMARK   17  A    between atoms: _42  and  _44
REMARK   18  A    between atoms: _44  and  _45
REMARK   19  A    between atoms: _44  and  _47
REMARK   20  A    between atoms: _47  and  _48
REMARK   21  A    between atoms: _51  and  _53
REMARK   22  A    between atoms: _53  and  _54
REMARK   23  A    between atoms: _53  and  _56
REMARK   24  A    between atoms: _56  and  _57
REMARK   25  A    between atoms: _60  and  _62
REMARK   26  A    between atoms: _62  and  _63
REMARK   27  A    between atoms: _62  and  _65
REMARK   28  A    between atoms: _65  and  _66
REMARK   29  A    between atoms: _68  and  _70
REMARK   30  A    between atoms: _70  and  _71
REMARK   31  A    between atoms: _70  and  _73
REMARK   32  A    between atoms: _73  and  _74
REMARK   33  A    between atoms: _77  and  _79
REMARK   34  A    between atoms: _79  and  _80
REMARK   35  A    between atoms: _83  and  _85
REMARK   36  A    between atoms: _85  and  _86
REMARK   37  A    between atoms: _85  and  _88
REMARK   38  A    between atoms: _88  and  _89
REMARK   39  A    between atoms: _99  and  _101
REMARK   40  A    between atoms: _101  and  _102
REMARK   41  A    between atoms: _101  and  _104
REMARK   42  A    between atoms: _104  and  _105
REMARK   43  A    between atoms: _111  and  _113
REMARK   44  A    between atoms: _113  and  _114
REMARK   45  A    between atoms: _113  and  _116
REMARK   46  A    between atoms: _116  and  _117
REMARK   47  A    between atoms: _120  and  _122
REMARK   48  A    between atoms: _122  and  _123
REMARK   49  A    between atoms: _126  and  _128
REMARK   50  A    between atoms: _128  and  _129
REMARK   51  A    between atoms: _128  and  _131
REMARK   52  A    between atoms: _131  and  _132
REMARK   53  A    between atoms: _135  and  _137
REMARK   54  A    between atoms: _137  and  _138
REMARK   55  A    between atoms: _137  and  _140
REMARK   56  A    between atoms: _143  and  _145
REMARK   57  A    between atoms: _145  and  _146
REMARK   58  A    between atoms: _145  and  _148
REMARK   59  A    between atoms: _148  and  _149
REMARK   60  A    between atoms: _152  and  _154
REMARK   61  A    between atoms: _154  and  _155
REMARK   62  A    between atoms: _154  and  _157
REMARK   63  A    between atoms: _157  and  _158
REMARK   64  A    between atoms: _161  and  _163
REMARK   65  A    between atoms: _163  and  _164
REMARK   66  A    between atoms: _163  and  _166
REMARK   67  A    between atoms: _166  and  _167
REMARK   68  A    between atoms: _169  and  _171
REMARK   69  A    between atoms: _171  and  _172
REMARK   70  A    between atoms: _171  and  _174
REMARK   71  A    between atoms: _174  and  _175
REMARK   72  A    between atoms: _175  and  _176
REMARK   73  A    between atoms: _179  and  _181
REMARK   74  A    between atoms: _181  and  _182
REMARK   75  A    between atoms: _181  and  _184
REMARK   76  A    between atoms: _184  and  _185
REMARK   77  A    between atoms: _185  and  _186
REMARK   78  A    between atoms: _186  and  _187
REMARK   79  A    between atoms: _196  and  _198
REMARK   80  A    between atoms: _198  and  _199
REMARK   81  A    between atoms: _198  and  _201
REMARK   82  A    between atoms: _201  and  _202
REMARK   83  A    between atoms: _208  and  _210
REMARK   84  A    between atoms: _210  and  _211
REMARK   85  A    between atoms: _210  and  _213
REMARK   86  A    between atoms: _213  and  _214
REMARK   87  A    between atoms: _217  and  _219
REMARK   88  A    between atoms: _219  and  _220
REMARK   89  A    between atoms: _222  and  _224
REMARK   90  A    between atoms: _224  and  _225
REMARK   91  A    between atoms: _224  and  _227
REMARK   92  A    between atoms: _227  and  _228
REMARK   93  A    between atoms: _231  and  _233
REMARK   94  A    between atoms: _233  and  _234
REMARK   95  A    between atoms: _233  and  _236
REMARK   96  A    between atoms: _236  and  _237
REMARK   97  A    between atoms: _243  and  _245
REMARK   98  A    between atoms: _245  and  _246
REMARK   99  A    between atoms: _245  and  _248
REMARK  100  A    between atoms: _248  and  _249
REMARK  101  A    between atoms: _249  and  _250
REMARK  102  A    between atoms: _250  and  _251
REMARK  103  A    between atoms: _260  and  _262
REMARK  104  A    between atoms: _262  and  _263
REMARK  105  A    between atoms: _262  and  _265
REMARK  106  A    between atoms: _265  and  _266
REMARK  107  A    between atoms: _269  and  _271
REMARK  108  A    between atoms: _271  and  _272
REMARK  109  A    between atoms: _271  and  _274
REMARK  110  A    between atoms: _274  and  _275
REMARK  111  A    between atoms: _278  and  _280
REMARK  112  A    between atoms: _280  and  _281
REMARK  113  A    between atoms: _280  and  _283
REMARK  114  A    between atoms: _286  and  _288
REMARK  115  A    between atoms: _288  and  _289
REMARK  116  A    between atoms: _288  and  _291
REMARK  117  A    between atoms: _291  and  _292
REMARK  118  A    between atoms: _295  and  _297
REMARK  119  A    between atoms: _297  and  _298
REMARK  120  A    between atoms: _297  and  _300
REMARK  121  A    between atoms: _303  and  _305
REMARK  122  A    between atoms: _305  and  _306
REMARK  123  A    between atoms: _305  and  _308
REMARK  124  A    between atoms: _308  and  _309
REMARK  125  A    between atoms: _312  and  _314
REMARK  126  A    between atoms: _314  and  _315
REMARK  127  A    between atoms: _318  and  _320
REMARK  128  A    between atoms: _320  and  _321
REMARK  129  A    between atoms: _320  and  _323
REMARK  130  A    between atoms: _323  and  _324
REMARK  131  A    between atoms: _327  and  _329
REMARK  132  A    between atoms: _329  and  _330
REMARK  133  A    between atoms: _329  and  _332
REMARK  134  A    between atoms: _332  and  _333
REMARK  135  A    between atoms: _335  and  _337
REMARK  136  A    between atoms: _337  and  _338
REMARK  137  A    between atoms: _337  and  _340
REMARK  138  A    between atoms: _340  and  _341
REMARK  139  A    between atoms: _346  and  _348
REMARK  140  A    between atoms: _348  and  _349
REMARK  141  A    between atoms: _348  and  _351
REMARK  142  A    between atoms: _351  and  _352
REMARK  143  A    between atoms: _355  and  _357
REMARK  144  A    between atoms: _357  and  _358
REMARK  145  A    between atoms: _360  and  _362
REMARK  146  A    between atoms: _362  and  _363
REMARK  147  A    between atoms: _362  and  _365
REMARK  148  A    between atoms: _365  and  _366
REMARK  149  A    between atoms: _368  and  _370
REMARK  150  A    between atoms: _370  and  _371
REMARK  151  A    between atoms: _370  and  _373
REMARK  152  A    between atoms: _373  and  _374
REMARK  153  A    between atoms: _374  and  _375
REMARK  154  A    between atoms: _377  and  _379
REMARK  155  A    between atoms: _379  and  _380
REMARK  156  A    between atoms: _379  and  _382
REMARK  157  A    between atoms: _382  and  _383
REMARK  158  A    between atoms: _389  and  _391
REMARK  159  A    between atoms: _391  and  _392
REMARK  160  A    between atoms: _395  and  _397
REMARK  161  A    between atoms: _397  and  _398
REMARK  162  A    between atoms: _402  and  _403
REMARK  163  A    between atoms: _408  and  _410
REMARK  164  A    between atoms: _410  and  _411
REMARK  165  A    between atoms: _410  and  _413
REMARK  166  A    between atoms: _413  and  _414
REMARK  167  A    between atoms: _414  and  _415
REMARK  168  A    between atoms: _417  and  _419
REMARK  169  A    between atoms: _419  and  _420
REMARK  170  A    between atoms: _419  and  _422
REMARK  171  A    between atoms: _422  and  _423
REMARK  172  A    between atoms: _428  and  _430
REMARK  173  A    between atoms: _430  and  _431
REMARK  174  A    between atoms: _430  and  _433
REMARK  175  A    between atoms: _433  and  _434
REMARK  176  A    between atoms: _437  and  _439
REMARK  177  A    between atoms: _439  and  _440
REMARK  178  A    between atoms: _439  and  _442
REMARK  179  A    between atoms: _442  and  _443
REMARK  180  A    between atoms: _449  and  _451
REMARK  181  A    between atoms: _451  and  _452
REMARK  182  A    between atoms: _451  and  _454
REMARK  183  A    between atoms: _454  and  _455
REMARK  184  A    between atoms: _460  and  _461
REMARK  185  A    between atoms: _463  and  _465
REMARK  186  A    between atoms: _465  and  _466
REMARK  187  A    between atoms: _465  and  _468
REMARK  188  A    between atoms: _471  and  _473
REMARK  189  A    between atoms: _473  and  _474
REMARK  190  A    between atoms: _473  and  _476
REMARK  191  A    between atoms: _479  and  _481
REMARK  192  A    between atoms: _481  and  _482
REMARK  193  A    between atoms: _481  and  _484
REMARK  194  A    between atoms: _484  and  _485
REMARK  195  A    between atoms: _487  and  _489
REMARK  196  A    between atoms: _489  and  _490
REMARK  197  A    between atoms: _489  and  _492
REMARK  198  A    between atoms: _492  and  _493
REMARK  199  A    between atoms: _493  and  _494
REMARK  200  A    between atoms: _494  and  _495
REMARK  201  A    between atoms: _504  and  _506
REMARK  202  A    between atoms: _506  and  _507
REMARK  203  A    between atoms: _506  and  _509
REMARK  204  A    between atoms: _509  and  _510
REMARK  205  A    between atoms: _510  and  _511
REMARK  206  A    between atoms: _513  and  _515
REMARK  207  A    between atoms: _515  and  _516
REMARK  208  A    between atoms: _515  and  _518
REMARK  209  A    between atoms: _518  and  _519
REMARK  210  A    between atoms: _522  and  _524
REMARK  211  A    between atoms: _524  and  _525
REMARK  212  A    between atoms: _524  and  _527
REMARK  213  A    between atoms: _527  and  _528
REMARK  214  A    between atoms: _531  and  _533
REMARK  215  A    between atoms: _533  and  _534
REMARK  216  A    between atoms: _533  and  _536
REMARK  217  A    between atoms: _536  and  _537
REMARK  218  A    between atoms: _537  and  _538
REMARK  219  A    between atoms: _538  and  _539
REMARK  220  A    between atoms: _548  and  _550
REMARK  221  A    between atoms: _550  and  _551
REMARK  222  A    between atoms: _550  and  _553
REMARK  223  A    between atoms: _553  and  _554
REMARK  224  A    between atoms: _557  and  _559
REMARK  225  A    between atoms: _559  and  _560
REMARK  226  A    between atoms: _559  and  _562
REMARK  227  A    between atoms: _562  and  _563
REMARK  228  A    between atoms: _569  and  _571
REMARK  229  A    between atoms: _571  and  _572
REMARK  230  A    between atoms: _571  and  _574
REMARK  231  A    between atoms: _574  and  _575
REMARK  232  A    between atoms: _578  and  _580
REMARK  233  A    between atoms: _580  and  _581
REMARK  234  A    between atoms: _584  and  _586
REMARK  235  A    between atoms: _586  and  _587
REMARK  236  A    between atoms: _586  and  _589
REMARK  237  A    between atoms: _589  and  _590
REMARK  238  A    between atoms: _590  and  _591
REMARK  239  A    between atoms: _593  and  _595
REMARK  240  A    between atoms: _595  and  _596
REMARK  241  A    between atoms: _595  and  _598
REMARK  242  A    between atoms: _598  and  _599
REMARK  243  A    between atoms: _599  and  _600
REMARK  244  A    between atoms: _603  and  _605
REMARK  245  A    between atoms: _605  and  _606
REMARK  246  A    between atoms: _605  and  _608
REMARK  247  A    between atoms: _608  and  _609
REMARK  248  A    between atoms: _609  and  _610
REMARK  249  A    between atoms: _610  and  _611
REMARK  250  A    between atoms: _620  and  _622
REMARK  251  A    between atoms: _622  and  _623
REMARK  252  A    between atoms: _622  and  _625
REMARK  253  A    between atoms: _625  and  _626
REMARK  254  A    between atoms: _631  and  _633
REMARK  255  A    between atoms: _633  and  _634
REMARK  256  A    between atoms: _633  and  _636
REMARK  257  A    between atoms: _636  and  _637
REMARK  258  A    between atoms: _637  and  _638
REMARK  259  A    between atoms: _640  and  _642
REMARK  260  A    between atoms: _642  and  _643
REMARK  261  A    between atoms: _642  and  _645
REMARK  262  A    between atoms: _645  and  _646
REMARK  263  A    between atoms: _651  and  _652
REMARK  264  A    between atoms: _654  and  _656
REMARK  265  A    between atoms: _656  and  _657
REMARK  266  A    between atoms: _656  and  _659
REMARK  267  A    between atoms: _661  and  _663
REMARK  268  A    between atoms: _663  and  _664
REMARK  269  A    between atoms: _663  and  _666
REMARK  270  A    between atoms: _666  and  _667
REMARK  271  A    between atoms: _672  and  _673
REMARK  272  A    between atoms: _675  and  _677
REMARK  273  A    between atoms: _677  and  _678
REMARK  274  A    between atoms: _677  and  _680
REMARK  275  A    between atoms: _680  and  _681
REMARK  276  A    between atoms: _684  and  _686
REMARK  277  A    between atoms: _686  and  _687
REMARK  278  A    between atoms: _686  and  _689
REMARK  279  A    between atoms: _692  and  _694
REMARK  280  A    between atoms: _694  and  _695
REMARK  281  A    between atoms: _694  and  _697
REMARK  282  A    between atoms: _697  and  _698
REMARK  283  A    between atoms: _703  and  _704
REMARK  284  A    between atoms: _706  and  _708
REMARK  285  A    between atoms: _708  and  _709
REMARK  286  A    between atoms: _708  and  _711
REMARK  287  A    between atoms: _711  and  _712
REMARK  288  A    between atoms: _718  and  _720
REMARK  289  A    between atoms: _720  and  _721
REMARK  290  A    between atoms: _724  and  _726
REMARK  291  A    between atoms: _726  and  _727
REMARK  292  A    between atoms: _726  and  _729
REMARK  293  A    between atoms: _732  and  _734
REMARK  294  A    between atoms: _734  and  _735
REMARK  295  A    between atoms: _734  and  _737
REMARK  296  A    between atoms: _737  and  _738
REMARK  297  A    between atoms: _741  and  _743
REMARK  298  A    between atoms: _743  and  _744
REMARK  299  A    between atoms: _746  and  _748
REMARK  300  A    between atoms: _748  and  _749
REMARK  301  A    between atoms: _748  and  _751
REMARK  302  A    between atoms: _751  and  _752
REMARK  303  A    between atoms: _752  and  _753
REMARK  304  A    between atoms: _756  and  _758
REMARK  305  A    between atoms: _758  and  _759
REMARK  306  A    between atoms: _758  and  _761
REMARK  307  A    between atoms: _761  and  _762
REMARK                            x       y       z     vdW  Elec       q    Type
REMARK                         _______ _______ _______ _____ _____    ______ ____
ROOT
ATOM      1  C   THR A   2     -22.003   6.052 -21.433  0.00  0.00    +0.243 C 
ATOM      2  N   PHE A   3     -20.745   6.008 -21.849  0.00  0.00    -0.298 N 
ATOM      3  H   PHE A   3     -19.965   5.925 -21.167  0.00  0.00    +0.150 HD
ATOM      4  O   THR A   2     -22.940   6.173 -22.224  0.00  0.00    -0.273 OA
ENDROOT
BRANCH   1   5
ATOM      5  CA  THR A   2     -22.259   5.925 -19.958  0.00  0.00    +0.176 C 
BRANCH   5   7
ATOM      6  C   GLY A   1     -21.720   3.585 -19.759  0.00  0.00    +0.240 C 
ATOM      7  N   THR A   2     -21.515   4.836 -19.381  0.00  0.00    -0.295 N 
ATOM      8  H   THR A   2     -20.801   5.037 -18.652  0.00  0.00    +0.150 HD
ATOM      9  O   GLY A   1     -22.647   3.261 -20.523  0.00  0.00    -0.274 OA
BRANCH   6  10
ATOM     10  CA  GLY A   1     -20.831   2.551 -19.130  0.00  0.00    +0.169 C 
BRANCH  10  11
ATOM     11  N   GLY A   1     -19.447   2.979 -18.943  0.00  0.00    -0.236 NA
ATOM     12  H   GLY A   1     -19.011   2.947 -18.000  0.00  0.00    +0.142 HD
ENDBRANCH  10  11
ENDBRANCH   6  10
ENDBRANCH   5   7
BRANCH   5  13
ATOM     13  CB  THR A   2     -21.941   7.234 -19.197  0.00  0.00    +0.137 C 
ATOM     14  CG2 THR A   2     -22.512   8.485 -19.885  0.00  0.00    +0.034 C 
BRANCH  13  15
ATOM     15  OG1 THR A   2     -22.481   7.129 -17.869  0.00  0.00    -0.382 OA
ATOM     16  HG1 THR A   2     -22.067   6.358 -17.406  0.00  0.00    +0.210 HD
ENDBRANCH  13  15
ENDBRANCH   5  13
ENDBRANCH   1   5
BRANCH   2  17
ATOM     17  CA  PHE A   3     -20.474   6.079 -23.286  0.00  0.00    +0.141 C 
BRANCH  17  18
ATOM     18  C   PHE A   3     -21.074   4.951 -24.056  0.00  0.00    +0.227 C 
ATOM     19  O   PHE A   3     -21.656   5.148 -25.118  0.00  0.00    -0.286 OA
ENDBRANCH  17  18
BRANCH  17  20
ATOM     20  CB  PHE A   3     -18.954   6.132 -23.556  0.00  0.00    +0.054 C 
BRANCH  20  21
ATOM     21  CG  PHE A   3     -18.254   7.262 -22.877  0.00  0.00    -0.020 A 
ATOM     22  CD2 PHE A   3     -16.922   7.126 -22.511  0.00  0.00    -0.004 A 
ATOM     23  CE2 PHE A   3     -16.247   8.137 -21.865  0.00  0.00    -0.000 A 
ATOM     24  CZ  PHE A   3     -16.881   9.313 -21.585  0.00  0.00    -0.000 A 
ATOM     25  CE1 PHE A   3     -18.217   9.460 -21.922  0.00  0.00    -0.000 A 
ATOM     26  CD1 PHE A   3     -18.898   8.442 -22.568  0.00  0.00    -0.004 A 
ENDBRANCH  20  21
ENDBRANCH  17  20
ENDBRANCH   2  17
TORSDOF 10
REMARK  Name = ../refined-set-2016/4v24/4v24_pocket.pdb
REMARK  307 active torsions:
REMARK  status: ('A' for Active; 'I' for Inactive)
REMARK    1  A    between atoms: _1  and  _3
REMARK    2  A    between atoms: _3  and  _4
REMARK    3  A    between atoms: _6  and  _8
REMARK    4  A    between atoms: _8  and  _9
REMARK    5  A    between atoms: _8  and  _11
REMARK    6  A    between atoms: _11  and  _12
REMARK    7  A    between atoms: _15  and  _17
REMARK    8  A    between atoms: _17  and  _18
REMARK    9  A    between atoms: _20  and  _22
REMARK   10  A    between atoms: _22  and  _23
REMARK   11  A    between atoms: _25  and  _27
REMARK   12  A    between atoms: _27  and  _28
REMARK   13  A    between atoms: _27  and  _30
REMARK   14  A    between atoms: _30  and  _31
REMARK   15  A    between atoms: _36  and  _38
REMARK   16  A    between atoms: _38  and  _39
REMARK   17  A    between atoms: _42  and  _44
REMARK   18  A    between atoms: _44  and  _45
REMARK   19  A    between atoms: _44  and  _47
REMARK   20  A    between atoms: _47  and  _48
REMARK   21  A    between atoms: _51  and  _53
REMARK   22  A    between atoms: _53  and  _54
REMARK   23  A    between atoms: _53  and  _56
REMARK   24  A    between atoms: _56  and  _57
REMARK   25  A    between atoms: _60  and  _62
REMARK   26  A    between atoms: _62  and  _63
REMARK   27  A    between atoms: _62  and  _65
REMARK   28  A    between atoms: _65  and  _66
REMARK   29  A    between atoms: _68  and  _70
REMARK   30  A    between atoms: _70  and  _71
REMARK   31  A    between atoms: _70  and  _73
REMARK   32  A    between atoms: _73  and  _74
REMARK   33  A    between atoms: _77  and  _79
REMARK   34  A    between atoms: _79  and  _80
REMARK   35  A    between atoms: _83  and  _85
REMARK   36  A    between atoms: _85  and  _86
REMARK   37  A    between atoms: _85  and  _88
REMARK   38  A    between atoms: _88  and  _89
REMARK   39  A    between atoms: _99  and  _101
REMARK   40  A    between atoms: _101  and  _102
REMARK   41  A    between atoms: _101  and  _104
REMARK   42  A    between atoms: _104  and  _105
REMARK   43  A    between atoms: _111  and  _113
REMARK   44  A    between atoms: _113  and  _114
REMARK   45  A    between atoms: _113  and  _116
REMARK   46  A    between atoms: _116  and  _117
REMARK   47  A    between atoms: _120  and  _122
REMARK   48  A    between atoms: _122  and  _123
REMARK   49  A    between atoms: _126  and  _128
REMARK   50  A    between atoms: _128  and  _129
REMARK   51  A    between atoms: _128  and  _131
REMARK   52  A    between atoms: _131  and  _132
REMARK   53  A    between atoms: _135  and  _137
REMARK   54  A    between atoms: _137  and  _138
REMARK   55  A    between atoms: _137  and  _140
REMARK   56  A    between atoms: _143  and  _145
REMARK   57  A    between atoms: _145  and  _146
REMARK   58  A    between atoms: _145  and  _148
REMARK   59  A    between atoms: _148  and  _149
REMARK   60  A    between atoms: _152  and  _154
REMARK   61  A    between atoms: _154  and  _155
REMARK   62  A    between atoms: _154  and  _157
REMARK   63  A    between atoms: _157  and  _158
REMARK   64  A    between atoms: _161  and  _163
REMARK   65  A    between atoms: _163  and  _164
REMARK   66  A    between atoms: _163  and  _166
REMARK   67  A    between atoms: _166  and  _167
REMARK   68  A    between atoms: _169  and  _171
REMARK   69  A    between atoms: _171  and  _172
REMARK   70  A    between atoms: _171  and  _174
REMARK   71  A    between atoms: _174  and  _175
REMARK   72  A    between atoms: _175  and  _176
REMARK   73  A    between atoms: _179  and  _181
REMARK   74  A    between atoms: _181  and  _182
REMARK   75  A    between atoms: _181  and  _184
REMARK   76  A    between atoms: _184  and  _185
REMARK   77  A    between atoms: _185  and  _186
REMARK   78  A    between atoms: _186  and  _187
REMARK   79  A    between atoms: _196  and  _198
REMARK   80  A    between atoms: _198  and  _199
REMARK   81  A    between atoms: _198  and  _201
REMARK   82  A    between atoms: _201  and  _202
REMARK   83  A    between atoms: _208  and  _210
REMARK   84  A    between atoms: _210  and  _211
REMARK   85  A    between atoms: _210  and  _213
REMARK   86  A    between atoms: _213  and  _214
REMARK   87  A    between atoms: _217  and  _219
REMARK   88  A    between atoms: _219  and  _220
REMARK   89  A    between atoms: _222  and  _224
REMARK   90  A    between atoms: _224  and  _225
REMARK   91  A    between atoms: _224  and  _227
REMARK   92  A    between atoms: _227  and  _228
REMARK   93  A    between atoms: _231  and  _233
REMARK   94  A    between atoms: _233  and  _234
REMARK   95  A    between atoms: _233  and  _236
REMARK   96  A    between atoms: _236  and  _237
REMARK   97  A    between atoms: _243  and  _245
REMARK   98  A    between atoms: _245  and  _246
REMARK   99  A    between atoms: _245  and  _248
REMARK  100  A    between atoms: _248  and  _249
REMARK  101  A    between atoms: _249  and  _250
REMARK  102  A    between atoms: _250  and  _251
REMARK  103  A    between atoms: _260  and  _262
REMARK  104  A    between atoms: _262  and  _263
REMARK  105  A    between atoms: _262  and  _265
REMARK  106  A    between atoms: _265  and  _266
REMARK  107  A    between atoms: _269  and  _271
REMARK  108  A    between atoms: _271  and  _272
REMARK  109  A    between atoms: _271  and  _274
REMARK  110  A    between atoms: _274  and  _275
REMARK  111  A    between atoms: _278  and  _280
REMARK  112  A    between atoms: _280  and  _281
REMARK  113  A    between atoms: _280  and  _283
REMARK  114  A    between atoms: _286  and  _288
REMARK  115  A    between atoms: _288  and  _289
REMARK  116  A    between atoms: _288  and  _291
REMARK  117  A    between atoms: _291  and  _292
REMARK  118  A    between atoms: _295  and  _297
REMARK  119  A    between atoms: _297  and  _298
REMARK  120  A    between atoms: _297  and  _300
REMARK  121  A    between atoms: _303  and  _305
REMARK  122  A    between atoms: _305  and  _306
REMARK  123  A    between atoms: _305  and  _308
REMARK  124  A    between atoms: _308  and  _309
REMARK  125  A    between atoms: _312  and  _314
REMARK  126  A    between atoms: _314  and  _315
REMARK  127  A    between atoms: _318  and  _320
REMARK  128  A    between atoms: _320  and  _321
REMARK  129  A    between atoms: _320  and  _323
REMARK  130  A    between atoms: _323  and  _324
REMARK  131  A    between atoms: _327  and  _329
REMARK  132  A    between atoms: _329  and  _330
REMARK  133  A    between atoms: _329  and  _332
REMARK  134  A    between atoms: _332  and  _333
REMARK  135  A    between atoms: _335  and  _337
REMARK  136  A    between atoms: _337  and  _338
REMARK  137  A    between atoms: _337  and  _340
REMARK  138  A    between atoms: _340  and  _341
REMARK  139  A    between atoms: _346  and  _348
REMARK  140  A    between atoms: _348  and  _349
REMARK  141  A    between atoms: _348  and  _351
REMARK  142  A    between atoms: _351  and  _352
REMARK  143  A    between atoms: _355  and  _357
REMARK  144  A    between atoms: _357  and  _358
REMARK  145  A    between atoms: _360  and  _362
REMARK  146  A    between atoms: _362  and  _363
REMARK  147  A    between atoms: _362  and  _365
REMARK  148  A    between atoms: _365  and  _366
REMARK  149  A    between atoms: _368  and  _370
REMARK  150  A    between atoms: _370  and  _371
REMARK  151  A    between atoms: _370  and  _373
REMARK  152  A    between atoms: _373  and  _374
REMARK  153  A    between atoms: _374  and  _375
REMARK  154  A    between atoms: _377  and  _379
REMARK  155  A    between atoms: _379  and  _380
REMARK  156  A    between atoms: _379  and  _382
REMARK  157  A    between atoms: _382  and  _383
REMARK  158  A    between atoms: _389  and  _391
REMARK  159  A    between atoms: _391  and  _392
REMARK  160  A    between atoms: _395  and  _397
REMARK  161  A    between atoms: _397  and  _398
REMARK  162  A    between atoms: _402  and  _403
REMARK  163  A    between atoms: _408  and  _410
REMARK  164  A    between atoms: _410  and  _411
REMARK  165  A    between atoms: _410  and  _413
REMARK  166  A    between atoms: _413  and  _414
REMARK  167  A    between atoms: _414  and  _415
REMARK  168  A    between atoms: _417  and  _419
REMARK  169  A    between atoms: _419  and  _420
REMARK  170  A    between atoms: _419  and  _422
REMARK  171  A    between atoms: _422  and  _423
REMARK  172  A    between atoms: _428  and  _430
REMARK  173  A    between atoms: _430  and  _431
REMARK  174  A    between atoms: _430  and  _433
REMARK  175  A    between atoms: _433  and  _434
REMARK  176  A    between atoms: _437  and  _439
REMARK  177  A    between atoms: _439  and  _440
REMARK  178  A    between atoms: _439  and  _442
REMARK  179  A    between atoms: _442  and  _443
REMARK  180  A    between atoms: _449  and  _451
REMARK  181  A    between atoms: _451  and  _452
REMARK  182  A    between atoms: _451  and  _454
REMARK  183  A    between atoms: _454  and  _455
REMARK  184  A    between atoms: _460  and  _461
REMARK  185  A    between atoms: _463  and  _465
REMARK  186  A    between atoms: _465  and  _466
REMARK  187  A    between atoms: _465  and  _468
REMARK  188  A    between atoms: _471  and  _473
REMARK  189  A    between atoms: _473  and  _474
REMARK  190  A    between atoms: _473  and  _476
REMARK  191  A    between atoms: _479  and  _481
REMARK  192  A    between atoms: _481  and  _482
REMARK  193  A    between atoms: _481  and  _484
REMARK  194  A    between atoms: _484  and  _485
REMARK  195  A    between atoms: _487  and  _489
REMARK  196  A    between atoms: _489  and  _490
REMARK  197  A    between atoms: _489  and  _492
REMARK  198  A    between atoms: _492  and  _493
REMARK  199  A    between atoms: _493  and  _494
REMARK  200  A    between atoms: _494  and  _495
REMARK  201  A    between atoms: _504  and  _506
REMARK  202  A    between atoms: _506  and  _507
REMARK  203  A    between atoms: _506  and  _509
REMARK  204  A    between atoms: _509  and  _510
REMARK  205  A    between atoms: _510  and  _511
REMARK  206  A    between atoms: _513  and  _515
REMARK  207  A    between atoms: _515  and  _516
REMARK  208  A    between atoms: _515  and  _518
REMARK  209  A    between atoms: _518  and  _519
REMARK  210  A    between atoms: _522  and  _524
REMARK  211  A    between atoms: _524  and  _525
REMARK  212  A    between atoms: _524  and  _527
REMARK  213  A    between atoms: _527  and  _528
REMARK  214  A    between atoms: _531  and  _533
REMARK  215  A    between atoms: _533  and  _534
REMARK  216  A    between atoms: _533  and  _536
REMARK  217  A    between atoms: _536  and  _537
REMARK  218  A    between atoms: _537  and  _538
REMARK  219  A    between atoms: _538  and  _539
REMARK  220  A    between atoms: _548  and  _550
REMARK  221  A    between atoms: _550  and  _551
REMARK  222  A    between atoms: _550  and  _553
REMARK  223  A    between atoms: _553  and  _554
REMARK  224  A    between atoms: _557  and  _559
REMARK  225  A    between atoms: _559  and  _560
REMARK  226  A    between atoms: _559  and  _562
REMARK  227  A    between atoms: _562  and  _563
REMARK  228  A    between atoms: _569  and  _571
REMARK  229  A    between atoms: _571  and  _572
REMARK  230  A    between atoms: _571  and  _574
REMARK  231  A    between atoms: _574  and  _575
REMARK  232  A    between atoms: _578  and  _580
REMARK  233  A    between atoms: _580  and  _581
REMARK  234  A    between atoms: _584  and  _586
REMARK  235  A    between atoms: _586  and  _587
REMARK  236  A    between atoms: _586  and  _589
REMARK  237  A    between atoms: _589  and  _590
REMARK  238  A    between atoms: _590  and  _591
REMARK  239  A    between atoms: _593  and  _595
REMARK  240  A    between atoms: _595  and  _596
REMARK  241  A    between atoms: _595  and  _598
REMARK  242  A    between atoms: _598  and  _599
REMARK  243  A    between atoms: _599  and  _600
REMARK  244  A    between atoms: _603  and  _605
REMARK  245  A    between atoms: _605  and  _606
REMARK  246  A    between atoms: _605  and  _608
REMARK  247  A    between atoms: _608  and  _609
REMARK  248  A    between atoms: _609  and  _610
REMARK  249  A    between atoms: _610  and  _611
REMARK  250  A    between atoms: _620  and  _622
REMARK  251  A    between atoms: _622  and  _623
REMARK  252  A    between atoms: _622  and  _625
REMARK  253  A    between atoms: _625  and  _626
REMARK  254  A    between atoms: _631  and  _633
REMARK  255  A    between atoms: _633  and  _634
REMARK  256  A    between atoms: _633  and  _636
REMARK  257  A    between atoms: _636  and  _637
REMARK  258  A    between atoms: _637  and  _638
REMARK  259  A    between atoms: _640  and  _642
REMARK  260  A    between atoms: _642  and  _643
REMARK  261  A    between atoms: _642  and  _645
REMARK  262  A    between atoms: _645  and  _646
REMARK  263  A    between atoms: _651  and  _652
REMARK  264  A    between atoms: _654  and  _656
REMARK  265  A    between atoms: _656  and  _657
REMARK  266  A    between atoms: _656  and  _659
REMARK  267  A    between atoms: _661  and  _663
REMARK  268  A    between atoms: _663  and  _664
REMARK  269  A    between atoms: _663  and  _666
REMARK  270  A    between atoms: _666  and  _667
REMARK  271  A    between atoms: _672  and  _673
REMARK  272  A    between atoms: _675  and  _677
REMARK  273  A    between atoms: _677  and  _678
REMARK  274  A    between atoms: _677  and  _680
REMARK  275  A    between atoms: _680  and  _681
REMARK  276  A    between atoms: _684  and  _686
REMARK  277  A    between atoms: _686  and  _687
REMARK  278  A    between atoms: _686  and  _689
REMARK  279  A    between atoms: _692  and  _694
REMARK  280  A    between atoms: _694  and  _695
REMARK  281  A    between atoms: _694  and  _697
REMARK  282  A    between atoms: _697  and  _698
REMARK  283  A    between atoms: _703  and  _704
REMARK  284  A    between atoms: _706  and  _708
REMARK  285  A    between atoms: _708  and  _709
REMARK  286  A    between atoms: _708  and  _711
REMARK  287  A    between atoms: _711  and  _712
REMARK  288  A    between atoms: _718  and  _720
REMARK  289  A    between atoms: _720  and  _721
REMARK  290  A    between atoms: _724  and  _726
REMARK  291  A    between atoms: _726  and  _727
REMARK  292  A    between atoms: _726  and  _729
REMARK  293  A    between atoms: _732  and  _734
REMARK  294  A    between atoms: _734  and  _735
REMARK  295  A    between atoms: _734  and  _737
REMARK  296  A    between atoms: _737  and  _738
REMARK  297  A    between atoms: _741  and  _743
REMARK  298  A    between atoms: _743  and  _744
REMARK  299  A    between atoms: _746  and  _748
REMARK  300  A    between atoms: _748  and  _749
REMARK  301  A    between atoms: _748  and  _751
REMARK  302  A    between atoms: _751  and  _752
REMARK  303  A    between atoms: _752  and  _753
REMARK  304  A    between atoms: _756  and  _758
REMARK  305  A    between atoms: _758  and  _759
REMARK  306  A    between atoms: _758  and  _761
REMARK  307  A    between atoms: _761  and  _762
REMARK                            x       y       z     vdW  Elec       q    Type
REMARK                         _______ _______ _______ _____ _____    ______ ____
ROOT
ATOM      1  CA  ARG A   1     -25.180   3.263 -23.297  0.00  0.00    +0.145 C 
ENDROOT
BRANCH   1   2
ATOM      2  C   ARG A   1     -25.565   4.413 -24.200  0.00  0.00    +0.238 C 
ATOM      3  N   LEU A   2     -24.790   5.485 -24.183  0.00  0.00    -0.298 N 
ATOM      4  H   LEU A   2     -23.964   5.504 -23.552  0.00  0.00    +0.150 HD
ATOM      5  O   ARG A   1     -26.577   4.347 -24.892  0.00  0.00    -0.274 OA
BRANCH   3   6
ATOM      6  CA  LEU A   2     -25.066   6.643 -25.029  0.00  0.00    +0.137 C 
BRANCH   6   7
ATOM      7  C   LEU A   2     -24.957   6.253 -26.486  0.00  0.00    +0.227 C 
ATOM      8  O   LEU A   2     -25.816   6.601 -27.302  0.00  0.00    -0.286 OA
ENDBRANCH   6   7
BRANCH   6   9
ATOM      9  CB  LEU A   2     -24.085   7.780 -24.724  0.00  0.00    +0.028 C 
BRANCH   9  10
ATOM     10  CG  LEU A   2     -24.477   9.232 -24.932  0.00  0.00    +0.002 C 
ATOM     11  CD2 LEU A   2     -23.522  10.135 -24.165  0.00  0.00    +0.000 C 
ATOM     12  CD1 LEU A   2     -25.909   9.471 -24.497  0.00  0.00    +0.000 C 
ENDBRANCH   9  10
ENDBRANCH   6   9
ENDBRANCH   3   6
ENDBRANCH   1   2
BRANCH   1  13
ATOM     13  N   ARG A   1     -23.729   3.122 -23.244  0.00  0.00    -0.238 NA
ATOM     14  H   ARG A   1     -23.220   3.329 -22.361  0.00  0.00    +0.142 HD
ENDBRANCH   1  13
BRANCH   1  15
ATOM     15  CB  ARG A   1     -25.766   3.491 -21.869  0.00  0.00    +0.030 C 
BRANCH  15  16
ATOM     16  CG  ARG A   1     -27.295   3.394 -21.732  0.00  0.00    +0.045 C 
BRANCH  16  17
ATOM     17  CD  ARG A   1     -27.971   2.599 -22.875  0.00  0.00    +0.174 C 
BRANCH  17  18
ATOM     18  NE  ARG A   1     -28.192   1.208 -22.524  0.00  0.00    -0.265 N 
ATOM     19  HE  ARG A   1     -27.713   0.837 -21.679  0.00  0.00    +0.259 HD
ATOM     20  CZ  ARG A   1     -28.969   0.377 -23.216  0.00  0.00    +0.342 C 
ATOM     21  NH2 ARG A   1     -29.133  -0.867 -22.783  0.00  0.00    -0.292 N 
ATOM     22 HH21 ARG A   1     -28.657  -1.182 -21.913  0.00  0.00    +0.255 HD
ATOM     23 HH22 ARG A   1     -29.737  -1.527 -23.313  0.00  0.00    +0.255 HD
ATOM     24  NH1 ARG A   1     -29.559   0.767 -24.344  0.00  0.00    -0.292 N 
ATOM     25 HH11 ARG A   1     -29.416   1.734 -24.698  0.00  0.00    +0.255 HD
ATOM     26 HH12 ARG A   1     -30.163   0.104 -24.871  0.00  0.00    +0.255 HD
ENDBRANCH  17  18
ENDBRANCH  16  17
ENDBRANCH  15  16
ENDBRANCH   1  15
TORSDOF 10
REMARK  Name = ../refined-set-2016/4v24/4v24_pocket.pdb
REMARK  307 active torsions:
REMARK  status: ('A' for Active; 'I' for Inactive)
REMARK    1  A    between atoms: _1  and  _3
REMARK    2  A    between atoms: _3  and  _4
REMARK    3  A    between atoms: _6  and  _8
REMARK    4  A    between atoms: _8  and  _9
REMARK    5  A    between atoms: _8  and  _11
REMARK    6  A    between atoms: _11  and  _12
REMARK    7  A    between atoms: _15  and  _17
REMARK    8  A    between atoms: _17  and  _18
REMARK    9  A    between atoms: _20  and  _22
REMARK   10  A    between atoms: _22  and  _23
REMARK   11  A    between atoms: _25  and  _27
REMARK   12  A    between atoms: _27  and  _28
REMARK   13  A    between atoms: _27  and  _30
REMARK   14  A    between atoms: _30  and  _31
REMARK   15  A    between atoms: _36  and  _38
REMARK   16  A    between atoms: _38  and  _39
REMARK   17  A    between atoms: _42  and  _44
REMARK   18  A    between atoms: _44  and  _45
REMARK   19  A    between atoms: _44  and  _47
REMARK   20  A    between atoms: _47  and  _48
REMARK   21  A    between atoms: _51  and  _53
REMARK   22  A    between atoms: _53  and  _54
REMARK   23  A    between atoms: _53  and  _56
REMARK   24  A    between atoms: _56  and  _57
REMARK   25  A    between atoms: _60  and  _62
REMARK   26  A    between atoms: _62  and  _63
REMARK   27  A    between atoms: _62  and  _65
REMARK   28  A    between atoms: _65  and  _66
REMARK   29  A    between atoms: _68  and  _70
REMARK   30  A    between atoms: _70  and  _71
REMARK   31  A    between atoms: _70  and  _73
REMARK   32  A    between atoms: _73  and  _74
REMARK   33  A    between atoms: _77  and  _79
REMARK   34  A    between atoms: _79  and  _80
REMARK   35  A    between atoms: _83  and  _85
REMARK   36  A    between atoms: _85  and  _86
REMARK   37  A    between atoms: _85  and  _88
REMARK   38  A    between atoms: _88  and  _89
REMARK   39  A    between atoms: _99  and  _101
REMARK   40  A    between atoms: _101  and  _102
REMARK   41  A    between atoms: _101  and  _104
REMARK   42  A    between atoms: _104  and  _105
REMARK   43  A    between atoms: _111  and  _113
REMARK   44  A    between atoms: _113  and  _114
REMARK   45  A    between atoms: _113  and  _116
REMARK   46  A    between atoms: _116  and  _117
REMARK   47  A    between atoms: _120  and  _122
REMARK   48  A    between atoms: _122  and  _123
REMARK   49  A    between atoms: _126  and  _128
REMARK   50  A    between atoms: _128  and  _129
REMARK   51  A    between atoms: _128  and  _131
REMARK   52  A    between atoms: _131  and  _132
REMARK   53  A    between atoms: _135  and  _137
REMARK   54  A    between atoms: _137  and  _138
REMARK   55  A    between atoms: _137  and  _140
REMARK   56  A    between atoms: _143  and  _145
REMARK   57  A    between atoms: _145  and  _146
REMARK   58  A    between atoms: _145  and  _148
REMARK   59  A    between atoms: _148  and  _149
REMARK   60  A    between atoms: _152  and  _154
REMARK   61  A    between atoms: _154  and  _155
REMARK   62  A    between atoms: _154  and  _157
REMARK   63  A    between atoms: _157  and  _158
REMARK   64  A    between atoms: _161  and  _163
REMARK   65  A    between atoms: _163  and  _164
REMARK   66  A    between atoms: _163  and  _166
REMARK   67  A    between atoms: _166  and  _167
REMARK   68  A    between atoms: _169  and  _171
REMARK   69  A    between atoms: _171  and  _172
REMARK   70  A    between atoms: _171  and  _174
REMARK   71  A    between atoms: _174  and  _175
REMARK   72  A    between atoms: _175  and  _176
REMARK   73  A    between atoms: _179  and  _181
REMARK   74  A    between atoms: _181  and  _182
REMARK   75  A    between atoms: _181  and  _184
REMARK   76  A    between atoms: _184  and  _185
REMARK   77  A    between atoms: _185  and  _186
REMARK   78  A    between atoms: _186  and  _187
REMARK   79  A    between atoms: _196  and  _198
REMARK   80  A    between atoms: _198  and  _199
REMARK   81  A    between atoms: _198  and  _201
REMARK   82  A    between atoms: _201  and  _202
REMARK   83  A    between atoms: _208  and  _210
REMARK   84  A    between atoms: _210  and  _211
REMARK   85  A    between atoms: _210  and  _213
REMARK   86  A    between atoms: _213  and  _214
REMARK   87  A    between atoms: _217  and  _219
REMARK   88  A    between atoms: _219  and  _220
REMARK   89  A    between atoms: _222  and  _224
REMARK   90  A    between atoms: _224  and  _225
REMARK   91  A    between atoms: _224  and  _227
REMARK   92  A    between atoms: _227  and  _228
REMARK   93  A    between atoms: _231  and  _233
REMARK   94  A    between atoms: _233  and  _234
REMARK   95  A    between atoms: _233  and  _236
REMARK   96  A    between atoms: _236  and  _237
REMARK   97  A    between atoms: _243  and  _245
REMARK   98  A    between atoms: _245  and  _246
REMARK   99  A    between atoms: _245  and  _248
REMARK  100  A    between atoms: _248  and  _249
REMARK  101  A    between atoms: _249  and  _250
REMARK  102  A    between atoms: _250  and  _251
REMARK  103  A    between atoms: _260  and  _262
REMARK  104  A    between atoms: _262  and  _263
REMARK  105  A    between atoms: _262  and  _265
REMARK  106  A    between atoms: _265  and  _266
REMARK  107  A    between atoms: _269  and  _271
REMARK  108  A    between atoms: _271  and  _272
REMARK  109  A    between atoms: _271  and  _274
REMARK  110  A    between atoms: _274  and  _275
REMARK  111  A    between atoms: _278  and  _280
REMARK  112  A    between atoms: _280  and  _281
REMARK  113  A    between atoms: _280  and  _283
REMARK  114  A    between atoms: _286  and  _288
REMARK  115  A    between atoms: _288  and  _289
REMARK  116  A    between atoms: _288  and  _291
REMARK  117  A    between atoms: _291  and  _292
REMARK  118  A    between atoms: _295  and  _297
REMARK  119  A    between atoms: _297  and  _298
REMARK  120  A    between atoms: _297  and  _300
REMARK  121  A    between atoms: _303  and  _305
REMARK  122  A    between atoms: _305  and  _306
REMARK  123  A    between atoms: _305  and  _308
REMARK  124  A    between atoms: _308  and  _309
REMARK  125  A    between atoms: _312  and  _314
REMARK  126  A    between atoms: _314  and  _315
REMARK  127  A    between atoms: _318  and  _320
REMARK  128  A    between atoms: _320  and  _321
REMARK  129  A    between atoms: _320  and  _323
REMARK  130  A    between atoms: _323  and  _324
REMARK  131  A    between atoms: _327  and  _329
REMARK  132  A    between atoms: _329  and  _330
REMARK  133  A    between atoms: _329  and  _332
REMARK  134  A    between atoms: _332  and  _333
REMARK  135  A    between atoms: _335  and  _337
REMARK  136  A    between atoms: _337  and  _338
REMARK  137  A    between atoms: _337  and  _340
REMARK  138  A    between atoms: _340  and  _341
REMARK  139  A    between atoms: _346  and  _348
REMARK  140  A    between atoms: _348  and  _349
REMARK  141  A    between atoms: _348  and  _351
REMARK  142  A    between atoms: _351  and  _352
REMARK  143  A    between atoms: _355  and  _357
REMARK  144  A    between atoms: _357  and  _358
REMARK  145  A    between atoms: _360  and  _362
REMARK  146  A    between atoms: _362  and  _363
REMARK  147  A    between atoms: _362  and  _365
REMARK  148  A    between atoms: _365  and  _366
REMARK  149  A    between atoms: _368  and  _370
REMARK  150  A    between atoms: _370  and  _371
REMARK  151  A    between atoms: _370  and  _373
REMARK  152  A    between atoms: _373  and  _374
REMARK  153  A    between atoms: _374  and  _375
REMARK  154  A    between atoms: _377  and  _379
REMARK  155  A    between atoms: _379  and  _380
REMARK  156  A    between atoms: _379  and  _382
REMARK  157  A    between atoms: _382  and  _383
REMARK  158  A    between atoms: _389  and  _391
REMARK  159  A    between atoms: _391  and  _392
REMARK  160  A    between atoms: _395  and  _397
REMARK  161  A    between atoms: _397  and  _398
REMARK  162  A    between atoms: _402  and  _403
REMARK  163  A    between atoms: _408  and  _410
REMARK  164  A    between atoms: _410  and  _411
REMARK  165  A    between atoms: _410  and  _413
REMARK  166  A    between atoms: _413  and  _414
REMARK  167  A    between atoms: _414  and  _415
REMARK  168  A    between atoms: _417  and  _419
REMARK  169  A    between atoms: _419  and  _420
REMARK  170  A    between atoms: _419  and  _422
REMARK  171  A    between atoms: _422  and  _423
REMARK  172  A    between atoms: _428  and  _430
REMARK  173  A    between atoms: _430  and  _431
REMARK  174  A    between atoms: _430  and  _433
REMARK  175  A    between atoms: _433  and  _434
REMARK  176  A    between atoms: _437  and  _439
REMARK  177  A    between atoms: _439  and  _440
REMARK  178  A    between atoms: _439  and  _442
REMARK  179  A    between atoms: _442  and  _443
REMARK  180  A    between atoms: _449  and  _451
REMARK  181  A    between atoms: _451  and  _452
REMARK  182  A    between atoms: _451  and  _454
REMARK  183  A    between atoms: _454  and  _455
REMARK  184  A    between atoms: _460  and  _461
REMARK  185  A    between atoms: _463  and  _465
REMARK  186  A    between atoms: _465  and  _466
REMARK  187  A    between atoms: _465  and  _468
REMARK  188  A    between atoms: _471  and  _473
REMARK  189  A    between atoms: _473  and  _474
REMARK  190  A    between atoms: _473  and  _476
REMARK  191  A    between atoms: _479  and  _481
REMARK  192  A    between atoms: _481  and  _482
REMARK  193  A    between atoms: _481  and  _484
REMARK  194  A    between atoms: _484  and  _485
REMARK  195  A    between atoms: _487  and  _489
REMARK  196  A    between atoms: _489  and  _490
REMARK  197  A    between atoms: _489  and  _492
REMARK  198  A    between atoms: _492  and  _493
REMARK  199  A    between atoms: _493  and  _494
REMARK  200  A    between atoms: _494  and  _495
REMARK  201  A    between atoms: _504  and  _506
REMARK  202  A    between atoms: _506  and  _507
REMARK  203  A    between atoms: _506  and  _509
REMARK  204  A    between atoms: _509  and  _510
REMARK  205  A    between atoms: _510  and  _511
REMARK  206  A    between atoms: _513  and  _515
REMARK  207  A    between atoms: _515  and  _516
REMARK  208  A    between atoms: _515  and  _518
REMARK  209  A    between atoms: _518  and  _519
REMARK  210  A    between atoms: _522  and  _524
REMARK  211  A    between atoms: _524  and  _525
REMARK  212  A    between atoms: _524  and  _527
REMARK  213  A    between atoms: _527  and  _528
REMARK  214  A    between atoms: _531  and  _533
REMARK  215  A    between atoms: _533  and  _534
REMARK  216  A    between atoms: _533  and  _536
REMARK  217  A    between atoms: _536  and  _537
REMARK  218  A    between atoms: _537  and  _538
REMARK  219  A    between atoms: _538  and  _539
REMARK  220  A    between atoms: _548  and  _550
REMARK  221  A    between atoms: _550  and  _551
REMARK  222  A    between atoms: _550  and  _553
REMARK  223  A    between atoms: _553  and  _554
REMARK  224  A    between atoms: _557  and  _559
REMARK  225  A    between atoms: _559  and  _560
REMARK  226  A    between atoms: _559  and  _562
REMARK  227  A    between atoms: _562  and  _563
REMARK  228  A    between atoms: _569  and  _571
REMARK  229  A    between atoms: _571  and  _572
REMARK  230  A    between atoms: _571  and  _574
REMARK  231  A    between atoms: _574  and  _575
REMARK  232  A    between atoms: _578  and  _580
REMARK  233  A    between atoms: _580  and  _581
REMARK  234  A    between atoms: _584  and  _586
REMARK  235  A    between atoms: _586  and  _587
REMARK  236  A    between atoms: _586  and  _589
REMARK  237  A    between atoms: _589  and  _590
REMARK  238  A    between atoms: _590  and  _591
REMARK  239  A    between atoms: _593  and  _595
REMARK  240  A    between atoms: _595  and  _596
REMARK  241  A    between atoms: _595  and  _598
REMARK  242  A    between atoms: _598  and  _599
REMARK  243  A    between atoms: _599  and  _600
REMARK  244  A    between atoms: _603  and  _605
REMARK  245  A    between atoms: _605  and  _606
REMARK  246  A    between atoms: _605  and  _608
REMARK  247  A    between atoms: _608  and  _609
REMARK  248  A    between atoms: _609  and  _610
REMARK  249  A    between atoms: _610  and  _611
REMARK  250  A    between atoms: _620  and  _622
REMARK  251  A    between atoms: _622  and  _623
REMARK  252  A    between atoms: _622  and  _625
REMARK  253  A    between atoms: _625  and  _626
REMARK  254  A    between atoms: _631  and  _633
REMARK  255  A    between atoms: _633  and  _634
REMARK  256  A    between atoms: _633  and  _636
REMARK  257  A    between atoms: _636  and  _637
REMARK  258  A    between atoms: _637  and  _638
REMARK  259  A    between atoms: _640  and  _642
REMARK  260  A    between atoms: _642  and  _643
REMARK  261  A    between atoms: _642  and  _645
REMARK  262  A    between atoms: _645  and  _646
REMARK  263  A    between atoms: _651  and  _652
REMARK  264  A    between atoms: _654  and  _656
REMARK  265  A    between atoms: _656  and  _657
REMARK  266  A    between atoms: _656  and  _659
REMARK  267  A    between atoms: _661  and  _663
REMARK  268  A    between atoms: _663  and  _664
REMARK  269  A    between atoms: _663  and  _666
REMARK  270  A    between atoms: _666  and  _667
REMARK  271  A    between atoms: _672  and  _673
REMARK  272  A    between atoms: _675  and  _677
REMARK  273  A    between atoms: _677  and  _678
REMARK  274  A    between atoms: _677  and  _680
REMARK  275  A    between atoms: _680  and  _681
REMARK  276  A    between atoms: _684  and  _686
REMARK  277  A    between atoms: _686  and  _687
REMARK  278  A    between atoms: _686  and  _689
REMARK  279  A    between atoms: _692  and  _694
REMARK  280  A    between atoms: _694  and  _695
REMARK  281  A    between atoms: _694  and  _697
REMARK  282  A    between atoms: _697  and  _698
REMARK  283  A    between atoms: _703  and  _704
REMARK  284  A    between atoms: _706  and  _708
REMARK  285  A    between atoms: _708  and  _709
REMARK  286  A    between atoms: _708  and  _711
REMARK  287  A    between atoms: _711  and  _712
REMARK  288  A    between atoms: _718  and  _720
REMARK  289  A    between atoms: _720  and  _721
REMARK  290  A    between atoms: _724  and  _726
REMARK  291  A    between atoms: _726  and  _727
REMARK  292  A    between atoms: _726  and  _729
REMARK  293  A    between atoms: _732  and  _734
REMARK  294  A    between atoms: _734  and  _735
REMARK  295  A    between atoms: _734  and  _737
REMARK  296  A    between atoms: _737  and  _738
REMARK  297  A    between atoms: _741  and  _743
REMARK  298  A    between atoms: _743  and  _744
REMARK  299  A    between atoms: _746  and  _748
REMARK  300  A    between atoms: _748  and  _749
REMARK  301  A    between atoms: _748  and  _751
REMARK  302  A    between atoms: _751  and  _752
REMARK  303  A    between atoms: _752  and  _753
REMARK  304  A    between atoms: _756  and  _758
REMARK  305  A    between atoms: _758  and  _759
REMARK  306  A    between atoms: _758  and  _761
REMARK  307  A    between atoms: _761  and  _762
REMARK                            x       y       z     vdW  Elec       q    Type
REMARK                         _______ _______ _______ _____ _____    ______ ____
ROOT
ATOM      1  CA  LEU A   1     -29.286   5.372 -26.683  0.00  0.00    +0.133 C 
ENDROOT
BRANCH   1   2
ATOM      2  N   LEU A   1     -28.217   4.668 -27.409  0.00  0.00    -0.239 NA
ATOM      3  H   LEU A   1     -27.534   5.221 -27.966  0.00  0.00    +0.142 HD
ENDBRANCH   1   2
BRANCH   1   4
ATOM      4  C   LEU A   1     -30.663   4.827 -27.011  0.00  0.00    +0.224 C 
ATOM      5  O   LEU A   1     -30.993   4.656 -28.179  0.00  0.00    -0.287 OA
ENDBRANCH   1   4
BRANCH   1   6
ATOM      6  CB  LEU A   1     -29.257   6.876 -27.001  0.00  0.00    +0.025 C 
BRANCH   6   7
ATOM      7  CG  LEU A   1     -30.240   7.786 -26.270  0.00  0.00    +0.002 C 
ATOM      8  CD2 LEU A   1     -29.975   7.748 -24.773  0.00  0.00    +0.000 C 
ATOM      9  CD1 LEU A   1     -30.121   9.197 -26.797  0.00  0.00    +0.000 C 
ENDBRANCH   6   7
ENDBRANCH   1   6
TORSDOF 4
REMARK  Name = ../refined-set-2016/4v24/4v24_pocket.pdb
REMARK  307 active torsions:
REMARK  status: ('A' for Active; 'I' for Inactive)
REMARK    1  A    between atoms: _1  and  _3
REMARK    2  A    between atoms: _3  and  _4
REMARK    3  A    between atoms: _6  and  _8
REMARK    4  A    between atoms: _8  and  _9
REMARK    5  A    between atoms: _8  and  _11
REMARK    6  A    between atoms: _11  and  _12
REMARK    7  A    between atoms: _15  and  _17
REMARK    8  A    between atoms: _17  and  _18
REMARK    9  A    between atoms: _20  and  _22
REMARK   10  A    between atoms: _22  and  _23
REMARK   11  A    between atoms: _25  and  _27
REMARK   12  A    between atoms: _27  and  _28
REMARK   13  A    between atoms: _27  and  _30
REMARK   14  A    between atoms: _30  and  _31
REMARK   15  A    between atoms: _36  and  _38
REMARK   16  A    between atoms: _38  and  _39
REMARK   17  A    between atoms: _42  and  _44
REMARK   18  A    between atoms: _44  and  _45
REMARK   19  A    between atoms: _44  and  _47
REMARK   20  A    between atoms: _47  and  _48
REMARK   21  A    between atoms: _51  and  _53
REMARK   22  A    between atoms: _53  and  _54
REMARK   23  A    between atoms: _53  and  _56
REMARK   24  A    between atoms: _56  and  _57
REMARK   25  A    between atoms: _60  and  _62
REMARK   26  A    between atoms: _62  and  _63
REMARK   27  A    between atoms: _62  and  _65
REMARK   28  A    between atoms: _65  and  _66
REMARK   29  A    between atoms: _68  and  _70
REMARK   30  A    between atoms: _70  and  _71
REMARK   31  A    between atoms: _70  and  _73
REMARK   32  A    between atoms: _73  and  _74
REMARK   33  A    between atoms: _77  and  _79
REMARK   34  A    between atoms: _79  and  _80
REMARK   35  A    between atoms: _83  and  _85
REMARK   36  A    between atoms: _85  and  _86
REMARK   37  A    between atoms: _85  and  _88
REMARK   38  A    between atoms: _88  and  _89
REMARK   39  A    between atoms: _99  and  _101
REMARK   40  A    between atoms: _101  and  _102
REMARK   41  A    between atoms: _101  and  _104
REMARK   42  A    between atoms: _104  and  _105
REMARK   43  A    between atoms: _111  and  _113
REMARK   44  A    between atoms: _113  and  _114
REMARK   45  A    between atoms: _113  and  _116
REMARK   46  A    between atoms: _116  and  _117
REMARK   47  A    between atoms: _120  and  _122
REMARK   48  A    between atoms: _122  and  _123
REMARK   49  A    between atoms: _126  and  _128
REMARK   50  A    between atoms: _128  and  _129
REMARK   51  A    between atoms: _128  and  _131
REMARK   52  A    between atoms: _131  and  _132
REMARK   53  A    between atoms: _135  and  _137
REMARK   54  A    between atoms: _137  and  _138
REMARK   55  A    between atoms: _137  and  _140
REMARK   56  A    between atoms: _143  and  _145
REMARK   57  A    between atoms: _145  and  _146
REMARK   58  A    between atoms: _145  and  _148
REMARK   59  A    between atoms: _148  and  _149
REMARK   60  A    between atoms: _152  and  _154
REMARK   61  A    between atoms: _154  and  _155
REMARK   62  A    between atoms: _154  and  _157
REMARK   63  A    between atoms: _157  and  _158
REMARK   64  A    between atoms: _161  and  _163
REMARK   65  A    between atoms: _163  and  _164
REMARK   66  A    between atoms: _163  and  _166
REMARK   67  A    between atoms: _166  and  _167
REMARK   68  A    between atoms: _169  and  _171
REMARK   69  A    between atoms: _171  and  _172
REMARK   70  A    between atoms: _171  and  _174
REMARK   71  A    between atoms: _174  and  _175
REMARK   72  A    between atoms: _175  and  _176
REMARK   73  A    between atoms: _179  and  _181
REMARK   74  A    between atoms: _181  and  _182
REMARK   75  A    between atoms: _181  and  _184
REMARK   76  A    between atoms: _184  and  _185
REMARK   77  A    between atoms: _185  and  _186
REMARK   78  A    between atoms: _186  and  _187
REMARK   79  A    between atoms: _196  and  _198
REMARK   80  A    between atoms: _198  and  _199
REMARK   81  A    between atoms: _198  and  _201
REMARK   82  A    between atoms: _201  and  _202
REMARK   83  A    between atoms: _208  and  _210
REMARK   84  A    between atoms: _210  and  _211
REMARK   85  A    between atoms: _210  and  _213
REMARK   86  A    between atoms: _213  and  _214
REMARK   87  A    between atoms: _217  and  _219
REMARK   88  A    between atoms: _219  and  _220
REMARK   89  A    between atoms: _222  and  _224
REMARK   90  A    between atoms: _224  and  _225
REMARK   91  A    between atoms: _224  and  _227
REMARK   92  A    between atoms: _227  and  _228
REMARK   93  A    between atoms: _231  and  _233
REMARK   94  A    between atoms: _233  and  _234
REMARK   95  A    between atoms: _233  and  _236
REMARK   96  A    between atoms: _236  and  _237
REMARK   97  A    between atoms: _243  and  _245
REMARK   98  A    between atoms: _245  and  _246
REMARK   99  A    between atoms: _245  and  _248
REMARK  100  A    between atoms: _248  and  _249
REMARK  101  A    between atoms: _249  and  _250
REMARK  102  A    between atoms: _250  and  _251
REMARK  103  A    between atoms: _260  and  _262
REMARK  104  A    between atoms: _262  and  _263
REMARK  105  A    between atoms: _262  and  _265
REMARK  106  A    between atoms: _265  and  _266
REMARK  107  A    between atoms: _269  and  _271
REMARK  108  A    between atoms: _271  and  _272
REMARK  109  A    between atoms: _271  and  _274
REMARK  110  A    between atoms: _274  and  _275
REMARK  111  A    between atoms: _278  and  _280
REMARK  112  A    between atoms: _280  and  _281
REMARK  113  A    between atoms: _280  and  _283
REMARK  114  A    between atoms: _286  and  _288
REMARK  115  A    between atoms: _288  and  _289
REMARK  116  A    between atoms: _288  and  _291
REMARK  117  A    between atoms: _291  and  _292
REMARK  118  A    between atoms: _295  and  _297
REMARK  119  A    between atoms: _297  and  _298
REMARK  120  A    between atoms: _297  and  _300
REMARK  121  A    between atoms: _303  and  _305
REMARK  122  A    between atoms: _305  and  _306
REMARK  123  A    between atoms: _305  and  _308
REMARK  124  A    between atoms: _308  and  _309
REMARK  125  A    between atoms: _312  and  _314
REMARK  126  A    between atoms: _314  and  _315
REMARK  127  A    between atoms: _318  and  _320
REMARK  128  A    between atoms: _320  and  _321
REMARK  129  A    between atoms: _320  and  _323
REMARK  130  A    between atoms: _323  and  _324
REMARK  131  A    between atoms: _327  and  _329
REMARK  132  A    between atoms: _329  and  _330
REMARK  133  A    between atoms: _329  and  _332
REMARK  134  A    between atoms: _332  and  _333
REMARK  135  A    between atoms: _335  and  _337
REMARK  136  A    between atoms: _337  and  _338
REMARK  137  A    between atoms: _337  and  _340
REMARK  138  A    between atoms: _340  and  _341
REMARK  139  A    between atoms: _346  and  _348
REMARK  140  A    between atoms: _348  and  _349
REMARK  141  A    between atoms: _348  and  _351
REMARK  142  A    between atoms: _351  and  _352
REMARK  143  A    between atoms: _355  and  _357
REMARK  144  A    between atoms: _357  and  _358
REMARK  145  A    between atoms: _360  and  _362
REMARK  146  A    between atoms: _362  and  _363
REMARK  147  A    between atoms: _362  and  _365
REMARK  148  A    between atoms: _365  and  _366
REMARK  149  A    between atoms: _368  and  _370
REMARK  150  A    between atoms: _370  and  _371
REMARK  151  A    between atoms: _370  and  _373
REMARK  152  A    between atoms: _373  and  _374
REMARK  153  A    between atoms: _374  and  _375
REMARK  154  A    between atoms: _377  and  _379
REMARK  155  A    between atoms: _379  and  _380
REMARK  156  A    between atoms: _379  and  _382
REMARK  157  A    between atoms: _382  and  _383
REMARK  158  A    between atoms: _389  and  _391
REMARK  159  A    between atoms: _391  and  _392
REMARK  160  A    between atoms: _395  and  _397
REMARK  161  A    between atoms: _397  and  _398
REMARK  162  A    between atoms: _402  and  _403
REMARK  163  A    between atoms: _408  and  _410
REMARK  164  A    between atoms: _410  and  _411
REMARK  165  A    between atoms: _410  and  _413
REMARK  166  A    between atoms: _413  and  _414
REMARK  167  A    between atoms: _414  and  _415
REMARK  168  A    between atoms: _417  and  _419
REMARK  169  A    between atoms: _419  and  _420
REMARK  170  A    between atoms: _419  and  _422
REMARK  171  A    between atoms: _422  and  _423
REMARK  172  A    between atoms: _428  and  _430
REMARK  173  A    between atoms: _430  and  _431
REMARK  174  A    between atoms: _430  and  _433
REMARK  175  A    between atoms: _433  and  _434
REMARK  176  A    between atoms: _437  and  _439
REMARK  177  A    between atoms: _439  and  _440
REMARK  178  A    between atoms: _439  and  _442
REMARK  179  A    between atoms: _442  and  _443
REMARK  180  A    between atoms: _449  and  _451
REMARK  181  A    between atoms: _451  and  _452
REMARK  182  A    between atoms: _451  and  _454
REMARK  183  A    between atoms: _454  and  _455
REMARK  184  A    between atoms: _460  and  _461
REMARK  185  A    between atoms: _463  and  _465
REMARK  186  A    between atoms: _465  and  _466
REMARK  187  A    between atoms: _465  and  _468
REMARK  188  A    between atoms: _471  and  _473
REMARK  189  A    between atoms: _473  and  _474
REMARK  190  A    between atoms: _473  and  _476
REMARK  191  A    between atoms: _479  and  _481
REMARK  192  A    between atoms: _481  and  _482
REMARK  193  A    between atoms: _481  and  _484
REMARK  194  A    between atoms: _484  and  _485
REMARK  195  A    between atoms: _487  and  _489
REMARK  196  A    between atoms: _489  and  _490
REMARK  197  A    between atoms: _489  and  _492
REMARK  198  A    between atoms: _492  and  _493
REMARK  199  A    between atoms: _493  and  _494
REMARK  200  A    between atoms: _494  and  _495
REMARK  201  A    between atoms: _504  and  _506
REMARK  202  A    between atoms: _506  and  _507
REMARK  203  A    between atoms: _506  and  _509
REMARK  204  A    between atoms: _509  and  _510
REMARK  205  A    between atoms: _510  and  _511
REMARK  206  A    between atoms: _513  and  _515
REMARK  207  A    between atoms: _515  and  _516
REMARK  208  A    between atoms: _515  and  _518
REMARK  209  A    between atoms: _518  and  _519
REMARK  210  A    between atoms: _522  and  _524
REMARK  211  A    between atoms: _524  and  _525
REMARK  212  A    between atoms: _524  and  _527
REMARK  213  A    between atoms: _527  and  _528
REMARK  214  A    between atoms: _531  and  _533
REMARK  215  A    between atoms: _533  and  _534
REMARK  216  A    between atoms: _533  and  _536
REMARK  217  A    between atoms: _536  and  _537
REMARK  218  A    between atoms: _537  and  _538
REMARK  219  A    between atoms: _538  and  _539
REMARK  220  A    between atoms: _548  and  _550
REMARK  221  A    between atoms: _550  and  _551
REMARK  222  A    between atoms: _550  and  _553
REMARK  223  A    between atoms: _553  and  _554
REMARK  224  A    between atoms: _557  and  _559
REMARK  225  A    between atoms: _559  and  _560
REMARK  226  A    between atoms: _559  and  _562
REMARK  227  A    between atoms: _562  and  _563
REMARK  228  A    between atoms: _569  and  _571
REMARK  229  A    between atoms: _571  and  _572
REMARK  230  A    between atoms: _571  and  _574
REMARK  231  A    between atoms: _574  and  _575
REMARK  232  A    between atoms: _578  and  _580
REMARK  233  A    between atoms: _580  and  _581
REMARK  234  A    between atoms: _584  and  _586
REMARK  235  A    between atoms: _586  and  _587
REMARK  236  A    between atoms: _586  and  _589
REMARK  237  A    between atoms: _589  and  _590
REMARK  238  A    between atoms: _590  and  _591
REMARK  239  A    between atoms: _593  and  _595
REMARK  240  A    between atoms: _595  and  _596
REMARK  241  A    between atoms: _595  and  _598
REMARK  242  A    between atoms: _598  and  _599
REMARK  243  A    between atoms: _599  and  _600
REMARK  244  A    between atoms: _603  and  _605
REMARK  245  A    between atoms: _605  and  _606
REMARK  246  A    between atoms: _605  and  _608
REMARK  247  A    between atoms: _608  and  _609
REMARK  248  A    between atoms: _609  and  _610
REMARK  249  A    between atoms: _610  and  _611
REMARK  250  A    between atoms: _620  and  _622
REMARK  251  A    between atoms: _622  and  _623
REMARK  252  A    between atoms: _622  and  _625
REMARK  253  A    between atoms: _625  and  _626
REMARK  254  A    between atoms: _631  and  _633
REMARK  255  A    between atoms: _633  and  _634
REMARK  256  A    between atoms: _633  and  _636
REMARK  257  A    between atoms: _636  and  _637
REMARK  258  A    between atoms: _637  and  _638
REMARK  259  A    between atoms: _640  and  _642
REMARK  260  A    between atoms: _642  and  _643
REMARK  261  A    between atoms: _642  and  _645
REMARK  262  A    between atoms: _645  and  _646
REMARK  263  A    between atoms: _651  and  _652
REMARK  264  A    between atoms: _654  and  _656
REMARK  265  A    between atoms: _656  and  _657
REMARK  266  A    between atoms: _656  and  _659
REMARK  267  A    between atoms: _661  and  _663
REMARK  268  A    between atoms: _663  and  _664
REMARK  269  A    between atoms: _663  and  _666
REMARK  270  A    between atoms: _666  and  _667
REMARK  271  A    between atoms: _672  and  _673
REMARK  272  A    between atoms: _675  and  _677
REMARK  273  A    between atoms: _677  and  _678
REMARK  274  A    between atoms: _677  and  _680
REMARK  275  A    between atoms: _680  and  _681
REMARK  276  A    between atoms: _684  and  _686
REMARK  277  A    between atoms: _686  and  _687
REMARK  278  A    between atoms: _686  and  _689
REMARK  279  A    between atoms: _692  and  _694
REMARK  280  A    between atoms: _694  and  _695
REMARK  281  A    between atoms: _694  and  _697
REMARK  282  A    between atoms: _697  and  _698
REMARK  283  A    between atoms: _703  and  _704
REMARK  284  A    between atoms: _706  and  _708
REMARK  285  A    between atoms: _708  and  _709
REMARK  286  A    between atoms: _708  and  _711
REMARK  287  A    between atoms: _711  and  _712
REMARK  288  A    between atoms: _718  and  _720
REMARK  289  A    between atoms: _720  and  _721
REMARK  290  A    between atoms: _724  and  _726
REMARK  291  A    between atoms: _726  and  _727
REMARK  292  A    between atoms: _726  and  _729
REMARK  293  A    between atoms: _732  and  _734
REMARK  294  A    between atoms: _734  and  _735
REMARK  295  A    between atoms: _734  and  _737
REMARK  296  A    between atoms: _737  and  _738
REMARK  297  A    between atoms: _741  and  _743
REMARK  298  A    between atoms: _743  and  _744
REMARK  299  A    between atoms: _746  and  _748
REMARK  300  A    between atoms: _748  and  _749
REMARK  301  A    between atoms: _748  and  _751
REMARK  302  A    between atoms: _751  and  _752
REMARK  303  A    between atoms: _752  and  _753
REMARK  304  A    between atoms: _756  and  _758
REMARK  305  A    between atoms: _758  and  _759
REMARK  306  A    between atoms: _758  and  _761
REMARK  307  A    between atoms: _761  and  _762
REMARK                            x       y       z     vdW  Elec       q    Type
REMARK                         _______ _______ _______ _____ _____    ______ ____
ROOT
ATOM      1  C   VAL A   3     -34.826   8.817 -12.917  0.00  0.00    +0.241 C 
ATOM      2  N   LEU A   4     -34.610   9.836 -12.087  0.00  0.00    -0.297 N 
ATOM      3  H   LEU A   4     -35.095  10.738 -12.269  0.00  0.00    +0.150 HD
ATOM      4  O   VAL A   3     -34.329   7.670 -12.747  0.00  0.00    -0.273 OA
ENDROOT
BRANCH   2   5
ATOM      5  CA  LEU A   4     -33.721   9.740 -10.932  0.00  0.00    +0.149 C 
BRANCH   5   6
ATOM      6  C   LEU A   4     -34.243  10.466  -9.707  0.00  0.00    +0.241 C 
ATOM      7  N   ALA A   5     -34.515   9.713  -8.640  0.00  0.00    -0.297 N 
ATOM      8  H   ALA A   5     -34.565   8.680  -8.748  0.00  0.00    +0.150 HD
ATOM      9  O   LEU A   4     -34.420  11.665  -9.741  0.00  0.00    -0.273 OA
BRANCH   7  10
ATOM     10  CA  ALA A   5     -34.740  10.290  -7.350  0.00  0.00    +0.149 C 
ATOM     11  CB  ALA A   5     -35.776   9.472  -6.551  0.00  0.00    +0.031 C 
BRANCH  10  12
ATOM     12  C   ALA A   5     -33.393  10.294  -6.651  0.00  0.00    +0.241 C 
ATOM     13  N   LEU A   6     -32.994  11.459  -6.137  0.00  0.00    -0.298 N 
ATOM     14  H   LEU A   6     -33.654  12.262  -6.165  0.00  0.00    +0.150 HD
ATOM     15  O   ALA A   5     -32.726   9.247  -6.585  0.00  0.00    -0.273 OA
BRANCH  13  16
ATOM     16  CA  LEU A   6     -31.681  11.665  -5.539  0.00  0.00    +0.137 C 
BRANCH  16  17
ATOM     17  C   LEU A   6     -31.792  12.477  -4.243  0.00  0.00    +0.227 C 
ATOM     18  O   LEU A   6     -32.412  13.596  -4.234  0.00  0.00    -0.286 OA
ENDBRANCH  16  17
BRANCH  16  19
ATOM     19  CB  LEU A   6     -30.786  12.399  -6.527  0.00  0.00    +0.028 C 
BRANCH  19  20
ATOM     20  CG  LEU A   6     -29.374  12.760  -6.090  0.00  0.00    +0.002 C 
ATOM     21  CD2 LEU A   6     -28.550  11.531  -5.693  0.00  0.00    +0.000 C 
ATOM     22  CD1 LEU A   6     -28.666  13.466  -7.246  0.00  0.00    +0.000 C 
ENDBRANCH  19  20
ENDBRANCH  16  19
ENDBRANCH  13  16
ENDBRANCH  10  12
ENDBRANCH   7  10
ENDBRANCH   5   6
BRANCH   5  23
ATOM     23  CB  LEU A   4     -32.324  10.280 -11.291  0.00  0.00    +0.029 C 
BRANCH  23  24
ATOM     24  CG  LEU A   4     -31.336  10.262 -10.111  0.00  0.00    +0.002 C 
ATOM     25  CD2 LEU A   4     -30.914   8.832  -9.808  0.00  0.00    +0.000 C 
ATOM     26  CD1 LEU A   4     -30.116  11.089 -10.429  0.00  0.00    +0.000 C 
ENDBRANCH  23  24
ENDBRANCH   5  23
ENDBRANCH   2   5
BRANCH   1  27
ATOM     27  CA  VAL A   3     -35.727   9.110 -14.107  0.00  0.00    +0.149 C 
BRANCH  27  29
ATOM     28  C   LEU A   2     -35.009   9.135 -16.424  0.00  0.00    +0.241 C 
ATOM     29  N   VAL A   3     -35.123   8.500 -15.266  0.00  0.00    -0.297 N 
ATOM     30  H   VAL A   3     -34.764   7.527 -15.190  0.00  0.00    +0.150 HD
ATOM     31  O   LEU A   2     -35.560  10.224 -16.676  0.00  0.00    -0.273 OA
BRANCH  28  32
ATOM     32  CA  LEU A   2     -34.069   8.465 -17.410  0.00  0.00    +0.149 C 
BRANCH  32  34
ATOM     33  C   VAL A   1     -34.019   8.129 -19.837  0.00  0.00    +0.238 C 
ATOM     34  N   LEU A   2     -34.377   8.875 -18.792  0.00  0.00    -0.297 N 
ATOM     35  H   LEU A   2     -34.886   9.767 -18.956  0.00  0.00    +0.150 HD
ATOM     36  O   VAL A   1     -33.412   7.049 -19.727  0.00  0.00    -0.274 OA
BRANCH  33  37
ATOM     37  CA  VAL A   1     -34.446   8.648 -21.200  0.00  0.00    +0.145 C 
BRANCH  37  38
ATOM     38  CB  VAL A   1     -33.493   9.759 -21.677  0.00  0.00    +0.025 C 
ATOM     39  CG2 VAL A   1     -32.057   9.339 -21.506  0.00  0.00    +0.002 C 
ATOM     40  CG1 VAL A   1     -33.780  10.080 -23.155  0.00  0.00    +0.002 C 
ENDBRANCH  37  38
BRANCH  37  41
ATOM     41  N   VAL A   1     -35.796   9.139 -21.095  0.00  0.00    -0.238 NA
ATOM     42  H   VAL A   1     -35.962  10.154 -20.942  0.00  0.00    +0.142 HD
ENDBRANCH  37  41
ENDBRANCH  33  37
ENDBRANCH  32  34
BRANCH  32  43
ATOM     43  CB  LEU A   2     -32.618   8.819 -17.057  0.00  0.00    +0.029 C 
BRANCH  43  44
ATOM     44  CG  LEU A   2     -32.242  10.286 -16.955  0.00  0.00    +0.002 C 
ATOM     45  CD2 LEU A   2     -32.367  10.848 -15.529  0.00  0.00    +0.000 C 
ATOM     46  CD1 LEU A   2     -30.813  10.409 -17.469  0.00  0.00    +0.000 C 
ENDBRANCH  43  44
ENDBRANCH  32  43
ENDBRANCH  28  32
ENDBRANCH  27  29
BRANCH  27  47
ATOM     47  CB  VAL A   3     -37.111   8.563 -13.810  0.00  0.00    +0.027 C 
ATOM     48  CG2 VAL A   3     -37.654   9.218 -12.526  0.00  0.00    +0.002 C 
ATOM     49  CG1 VAL A   3     -38.055   8.777 -14.970  0.00  0.00    +0.002 C 
ENDBRANCH  27  47
ENDBRANCH   1  27
TORSDOF 20
REMARK  Name = ../refined-set-2016/4v24/4v24_pocket.pdb
REMARK  307 active torsions:
REMARK  status: ('A' for Active; 'I' for Inactive)
REMARK    1  A    between atoms: _1  and  _3
REMARK    2  A    between atoms: _3  and  _4
REMARK    3  A    between atoms: _6  and  _8
REMARK    4  A    between atoms: _8  and  _9
REMARK    5  A    between atoms: _8  and  _11
REMARK    6  A    between atoms: _11  and  _12
REMARK    7  A    between atoms: _15  and  _17
REMARK    8  A    between atoms: _17  and  _18
REMARK    9  A    between atoms: _20  and  _22
REMARK   10  A    between atoms: _22  and  _23
REMARK   11  A    between atoms: _25  and  _27
REMARK   12  A    between atoms: _27  and  _28
REMARK   13  A    between atoms: _27  and  _30
REMARK   14  A    between atoms: _30  and  _31
REMARK   15  A    between atoms: _36  and  _38
REMARK   16  A    between atoms: _38  and  _39
REMARK   17  A    between atoms: _42  and  _44
REMARK   18  A    between atoms: _44  and  _45
REMARK   19  A    between atoms: _44  and  _47
REMARK   20  A    between atoms: _47  and  _48
REMARK   21  A    between atoms: _51  and  _53
REMARK   22  A    between atoms: _53  and  _54
REMARK   23  A    between atoms: _53  and  _56
REMARK   24  A    between atoms: _56  and  _57
REMARK   25  A    between atoms: _60  and  _62
REMARK   26  A    between atoms: _62  and  _63
REMARK   27  A    between atoms: _62  and  _65
REMARK   28  A    between atoms: _65  and  _66
REMARK   29  A    between atoms: _68  and  _70
REMARK   30  A    between atoms: _70  and  _71
REMARK   31  A    between atoms: _70  and  _73
REMARK   32  A    between atoms: _73  and  _74
REMARK   33  A    between atoms: _77  and  _79
REMARK   34  A    between atoms: _79  and  _80
REMARK   35  A    between atoms: _83  and  _85
REMARK   36  A    between atoms: _85  and  _86
REMARK   37  A    between atoms: _85  and  _88
REMARK   38  A    between atoms: _88  and  _89
REMARK   39  A    between atoms: _99  and  _101
REMARK   40  A    between atoms: _101  and  _102
REMARK   41  A    between atoms: _101  and  _104
REMARK   42  A    between atoms: _104  and  _105
REMARK   43  A    between atoms: _111  and  _113
REMARK   44  A    between atoms: _113  and  _114
REMARK   45  A    between atoms: _113  and  _116
REMARK   46  A    between atoms: _116  and  _117
REMARK   47  A    between atoms: _120  and  _122
REMARK   48  A    between atoms: _122  and  _123
REMARK   49  A    between atoms: _126  and  _128
REMARK   50  A    between atoms: _128  and  _129
REMARK   51  A    between atoms: _128  and  _131
REMARK   52  A    between atoms: _131  and  _132
REMARK   53  A    between atoms: _135  and  _137
REMARK   54  A    between atoms: _137  and  _138
REMARK   55  A    between atoms: _137  and  _140
REMARK   56  A    between atoms: _143  and  _145
REMARK   57  A    between atoms: _145  and  _146
REMARK   58  A    between atoms: _145  and  _148
REMARK   59  A    between atoms: _148  and  _149
REMARK   60  A    between atoms: _152  and  _154
REMARK   61  A    between atoms: _154  and  _155
REMARK   62  A    between atoms: _154  and  _157
REMARK   63  A    between atoms: _157  and  _158
REMARK   64  A    between atoms: _161  and  _163
REMARK   65  A    between atoms: _163  and  _164
REMARK   66  A    between atoms: _163  and  _166
REMARK   67  A    between atoms: _166  and  _167
REMARK   68  A    between atoms: _169  and  _171
REMARK   69  A    between atoms: _171  and  _172
REMARK   70  A    between atoms: _171  and  _174
REMARK   71  A    between atoms: _174  and  _175
REMARK   72  A    between atoms: _175  and  _176
REMARK   73  A    between atoms: _179  and  _181
REMARK   74  A    between atoms: _181  and  _182
REMARK   75  A    between atoms: _181  and  _184
REMARK   76  A    between atoms: _184  and  _185
REMARK   77  A    between atoms: _185  and  _186
REMARK   78  A    between atoms: _186  and  _187
REMARK   79  A    between atoms: _196  and  _198
REMARK   80  A    between atoms: _198  and  _199
REMARK   81  A    between atoms: _198  and  _201
REMARK   82  A    between atoms: _201  and  _202
REMARK   83  A    between atoms: _208  and  _210
REMARK   84  A    between atoms: _210  and  _211
REMARK   85  A    between atoms: _210  and  _213
REMARK   86  A    between atoms: _213  and  _214
REMARK   87  A    between atoms: _217  and  _219
REMARK   88  A    between atoms: _219  and  _220
REMARK   89  A    between atoms: _222  and  _224
REMARK   90  A    between atoms: _224  and  _225
REMARK   91  A    between atoms: _224  and  _227
REMARK   92  A    between atoms: _227  and  _228
REMARK   93  A    between atoms: _231  and  _233
REMARK   94  A    between atoms: _233  and  _234
REMARK   95  A    between atoms: _233  and  _236
REMARK   96  A    between atoms: _236  and  _237
REMARK   97  A    between atoms: _243  and  _245
REMARK   98  A    between atoms: _245  and  _246
REMARK   99  A    between atoms: _245  and  _248
REMARK  100  A    between atoms: _248  and  _249
REMARK  101  A    between atoms: _249  and  _250
REMARK  102  A    between atoms: _250  and  _251
REMARK  103  A    between atoms: _260  and  _262
REMARK  104  A    between atoms: _262  and  _263
REMARK  105  A    between atoms: _262  and  _265
REMARK  106  A    between atoms: _265  and  _266
REMARK  107  A    between atoms: _269  and  _271
REMARK  108  A    between atoms: _271  and  _272
REMARK  109  A    between atoms: _271  and  _274
REMARK  110  A    between atoms: _274  and  _275
REMARK  111  A    between atoms: _278  and  _280
REMARK  112  A    between atoms: _280  and  _281
REMARK  113  A    between atoms: _280  and  _283
REMARK  114  A    between atoms: _286  and  _288
REMARK  115  A    between atoms: _288  and  _289
REMARK  116  A    between atoms: _288  and  _291
REMARK  117  A    between atoms: _291  and  _292
REMARK  118  A    between atoms: _295  and  _297
REMARK  119  A    between atoms: _297  and  _298
REMARK  120  A    between atoms: _297  and  _300
REMARK  121  A    between atoms: _303  and  _305
REMARK  122  A    between atoms: _305  and  _306
REMARK  123  A    between atoms: _305  and  _308
REMARK  124  A    between atoms: _308  and  _309
REMARK  125  A    between atoms: _312  and  _314
REMARK  126  A    between atoms: _314  and  _315
REMARK  127  A    between atoms: _318  and  _320
REMARK  128  A    between atoms: _320  and  _321
REMARK  129  A    between atoms: _320  and  _323
REMARK  130  A    between atoms: _323  and  _324
REMARK  131  A    between atoms: _327  and  _329
REMARK  132  A    between atoms: _329  and  _330
REMARK  133  A    between atoms: _329  and  _332
REMARK  134  A    between atoms: _332  and  _333
REMARK  135  A    between atoms: _335  and  _337
REMARK  136  A    between atoms: _337  and  _338
REMARK  137  A    between atoms: _337  and  _340
REMARK  138  A    between atoms: _340  and  _341
REMARK  139  A    between atoms: _346  and  _348
REMARK  140  A    between atoms: _348  and  _349
REMARK  141  A    between atoms: _348  and  _351
REMARK  142  A    between atoms: _351  and  _352
REMARK  143  A    between atoms: _355  and  _357
REMARK  144  A    between atoms: _357  and  _358
REMARK  145  A    between atoms: _360  and  _362
REMARK  146  A    between atoms: _362  and  _363
REMARK  147  A    between atoms: _362  and  _365
REMARK  148  A    between atoms: _365  and  _366
REMARK  149  A    between atoms: _368  and  _370
REMARK  150  A    between atoms: _370  and  _371
REMARK  151  A    between atoms: _370  and  _373
REMARK  152  A    between atoms: _373  and  _374
REMARK  153  A    between atoms: _374  and  _375
REMARK  154  A    between atoms: _377  and  _379
REMARK  155  A    between atoms: _379  and  _380
REMARK  156  A    between atoms: _379  and  _382
REMARK  157  A    between atoms: _382  and  _383
REMARK  158  A    between atoms: _389  and  _391
REMARK  159  A    between atoms: _391  and  _392
REMARK  160  A    between atoms: _395  and  _397
REMARK  161  A    between atoms: _397  and  _398
REMARK  162  A    between atoms: _402  and  _403
REMARK  163  A    between atoms: _408  and  _410
REMARK  164  A    between atoms: _410  and  _411
REMARK  165  A    between atoms: _410  and  _413
REMARK  166  A    between atoms: _413  and  _414
REMARK  167  A    between atoms: _414  and  _415
REMARK  168  A    between atoms: _417  and  _419
REMARK  169  A    between atoms: _419  and  _420
REMARK  170  A    between atoms: _419  and  _422
REMARK  171  A    between atoms: _422  and  _423
REMARK  172  A    between atoms: _428  and  _430
REMARK  173  A    between atoms: _430  and  _431
REMARK  174  A    between atoms: _430  and  _433
REMARK  175  A    between atoms: _433  and  _434
REMARK  176  A    between atoms: _437  and  _439
REMARK  177  A    between atoms: _439  and  _440
REMARK  178  A    between atoms: _439  and  _442
REMARK  179  A    between atoms: _442  and  _443
REMARK  180  A    between atoms: _449  and  _451
REMARK  181  A    between atoms: _451  and  _452
REMARK  182  A    between atoms: _451  and  _454
REMARK  183  A    between atoms: _454  and  _455
REMARK  184  A    between atoms: _460  and  _461
REMARK  185  A    between atoms: _463  and  _465
REMARK  186  A    between atoms: _465  and  _466
REMARK  187  A    between atoms: _465  and  _468
REMARK  188  A    between atoms: _471  and  _473
REMARK  189  A    between atoms: _473  and  _474
REMARK  190  A    between atoms: _473  and  _476
REMARK  191  A    between atoms: _479  and  _481
REMARK  192  A    between atoms: _481  and  _482
REMARK  193  A    between atoms: _481  and  _484
REMARK  194  A    between atoms: _484  and  _485
REMARK  195  A    between atoms: _487  and  _489
REMARK  196  A    between atoms: _489  and  _490
REMARK  197  A    between atoms: _489  and  _492
REMARK  198  A    between atoms: _492  and  _493
REMARK  199  A    between atoms: _493  and  _494
REMARK  200  A    between atoms: _494  and  _495
REMARK  201  A    between atoms: _504  and  _506
REMARK  202  A    between atoms: _506  and  _507
REMARK  203  A    between atoms: _506  and  _509
REMARK  204  A    between atoms: _509  and  _510
REMARK  205  A    between atoms: _510  and  _511
REMARK  206  A    between atoms: _513  and  _515
REMARK  207  A    between atoms: _515  and  _516
REMARK  208  A    between atoms: _515  and  _518
REMARK  209  A    between atoms: _518  and  _519
REMARK  210  A    between atoms: _522  and  _524
REMARK  211  A    between atoms: _524  and  _525
REMARK  212  A    between atoms: _524  and  _527
REMARK  213  A    between atoms: _527  and  _528
REMARK  214  A    between atoms: _531  and  _533
REMARK  215  A    between atoms: _533  and  _534
REMARK  216  A    between atoms: _533  and  _536
REMARK  217  A    between atoms: _536  and  _537
REMARK  218  A    between atoms: _537  and  _538
REMARK  219  A    between atoms: _538  and  _539
REMARK  220  A    between atoms: _548  and  _550
REMARK  221  A    between atoms: _550  and  _551
REMARK  222  A    between atoms: _550  and  _553
REMARK  223  A    between atoms: _553  and  _554
REMARK  224  A    between atoms: _557  and  _559
REMARK  225  A    between atoms: _559  and  _560
REMARK  226  A    between atoms: _559  and  _562
REMARK  227  A    between atoms: _562  and  _563
REMARK  228  A    between atoms: _569  and  _571
REMARK  229  A    between atoms: _571  and  _572
REMARK  230  A    between atoms: _571  and  _574
REMARK  231  A    between atoms: _574  and  _575
REMARK  232  A    between atoms: _578  and  _580
REMARK  233  A    between atoms: _580  and  _581
REMARK  234  A    between atoms: _584  and  _586
REMARK  235  A    between atoms: _586  and  _587
REMARK  236  A    between atoms: _586  and  _589
REMARK  237  A    between atoms: _589  and  _590
REMARK  238  A    between atoms: _590  and  _591
REMARK  239  A    between atoms: _593  and  _595
REMARK  240  A    between atoms: _595  and  _596
REMARK  241  A    between atoms: _595  and  _598
REMARK  242  A    between atoms: _598  and  _599
REMARK  243  A    between atoms: _599  and  _600
REMARK  244  A    between atoms: _603  and  _605
REMARK  245  A    between atoms: _605  and  _606
REMARK  246  A    between atoms: _605  and  _608
REMARK  247  A    between atoms: _608  and  _609
REMARK  248  A    between atoms: _609  and  _610
REMARK  249  A    between atoms: _610  and  _611
REMARK  250  A    between atoms: _620  and  _622
REMARK  251  A    between atoms: _622  and  _623
REMARK  252  A    between atoms: _622  and  _625
REMARK  253  A    between atoms: _625  and  _626
REMARK  254  A    between atoms: _631  and  _633
REMARK  255  A    between atoms: _633  and  _634
REMARK  256  A    between atoms: _633  and  _636
REMARK  257  A    between atoms: _636  and  _637
REMARK  258  A    between atoms: _637  and  _638
REMARK  259  A    between atoms: _640  and  _642
REMARK  260  A    between atoms: _642  and  _643
REMARK  261  A    between atoms: _642  and  _645
REMARK  262  A    between atoms: _645  and  _646
REMARK  263  A    between atoms: _651  and  _652
REMARK  264  A    between atoms: _654  and  _656
REMARK  265  A    between atoms: _656  and  _657
REMARK  266  A    between atoms: _656  and  _659
REMARK  267  A    between atoms: _661  and  _663
REMARK  268  A    between atoms: _663  and  _664
REMARK  269  A    between atoms: _663  and  _666
REMARK  270  A    between atoms: _666  and  _667
REMARK  271  A    between atoms: _672  and  _673
REMARK  272  A    between atoms: _675  and  _677
REMARK  273  A    between atoms: _677  and  _678
REMARK  274  A    between atoms: _677  and  _680
REMARK  275  A    between atoms: _680  and  _681
REMARK  276  A    between atoms: _684  and  _686
REMARK  277  A    between atoms: _686  and  _687
REMARK  278  A    between atoms: _686  and  _689
REMARK  279  A    between atoms: _692  and  _694
REMARK  280  A    between atoms: _694  and  _695
REMARK  281  A    between atoms: _694  and  _697
REMARK  282  A    between atoms: _697  and  _698
REMARK  283  A    between atoms: _703  and  _704
REMARK  284  A    between atoms: _706  and  _708
REMARK  285  A    between atoms: _708  and  _709
REMARK  286  A    between atoms: _708  and  _711
REMARK  287  A    between atoms: _711  and  _712
REMARK  288  A    between atoms: _718  and  _720
REMARK  289  A    between atoms: _720  and  _721
REMARK  290  A    between atoms: _724  and  _726
REMARK  291  A    between atoms: _726  and  _727
REMARK  292  A    between atoms: _726  and  _729
REMARK  293  A    between atoms: _732  and  _734
REMARK  294  A    between atoms: _734  and  _735
REMARK  295  A    between atoms: _734  and  _737
REMARK  296  A    between atoms: _737  and  _738
REMARK  297  A    between atoms: _741  and  _743
REMARK  298  A    between atoms: _743  and  _744
REMARK  299  A    between atoms: _746  and  _748
REMARK  300  A    between atoms: _748  and  _749
REMARK  301  A    between atoms: _748  and  _751
REMARK  302  A    between atoms: _751  and  _752
REMARK  303  A    between atoms: _752  and  _753
REMARK  304  A    between atoms: _756  and  _758
REMARK  305  A    between atoms: _758  and  _759
REMARK  306  A    between atoms: _758  and  _761
REMARK  307  A    between atoms: _761  and  _762
REMARK                            x       y       z     vdW  Elec       q    Type
REMARK                         _______ _______ _______ _____ _____    ______ ____
ROOT
ATOM      1  C   HIS A   2     -23.774  12.401  -6.171  0.00  0.00    +0.241 C 
ATOM      2  O   HIS A   2     -24.305  11.643  -5.369  0.00  0.00    -0.273 OA
ATOM      3  N   LEU A   3     -23.469  12.054  -7.414  0.00  0.00    -0.297 N 
ATOM      4  H   LEU A   3     -23.066  12.779  -8.042  0.00  0.00    +0.150 HD
ENDROOT
BRANCH   3   5
ATOM      5  CA  LEU A   3     -23.667  10.715  -7.948  0.00  0.00    +0.149 C 
BRANCH   5   6
ATOM      6  C   LEU A   3     -22.367   9.893  -7.972  0.00  0.00    +0.241 C 
ATOM      7  N   GLY A   4     -21.269  10.553  -7.680  0.00  0.00    -0.295 N 
ATOM      8  H   GLY A   4     -21.355  11.565  -7.454  0.00  0.00    +0.150 HD
ATOM      9  O   LEU A   3     -22.382   8.681  -8.197  0.00  0.00    -0.273 OA
BRANCH   7  10
ATOM     10  CA  GLY A   4     -19.950   9.965  -7.652  0.00  0.00    +0.176 C 
BRANCH  10  11
ATOM     11  C   GLY A   4     -18.990  11.044  -7.168  0.00  0.00    +0.243 C 
ATOM     12  N   SER A   5     -17.758  10.678  -6.867  0.00  0.00    -0.296 N 
ATOM     13  H   SER A   5     -17.453   9.692  -6.995  0.00  0.00    +0.150 HD
ATOM     14  O   GLY A   4     -19.346  12.224  -7.066  0.00  0.00    -0.273 OA
BRANCH  12  15
ATOM     15  CA  SER A   5     -16.849  11.661  -6.361  0.00  0.00    +0.166 C 
BRANCH  15  16
ATOM     16  C   SER A   5     -16.579  12.827  -7.331  0.00  0.00    +0.229 C 
ATOM     17  O   SER A   5     -16.274  13.922  -6.876  0.00  0.00    -0.286 OA
ENDBRANCH  15  16
BRANCH  15  18
ATOM     18  CB  SER A   5     -15.554  10.997  -5.887  0.00  0.00    +0.165 C 
BRANCH  18  19
ATOM     19  OG  SER A   5     -14.944  10.406  -6.981  0.00  0.00    -0.380 OA
ATOM     20  H   SER A   5     -15.552   9.728  -7.370  0.00  0.00    +0.211 HD
ENDBRANCH  18  19
ENDBRANCH  15  18
ENDBRANCH  12  15
ENDBRANCH  10  11
ENDBRANCH   7  10
ENDBRANCH   5   6
BRANCH   5  21
ATOM     21  CB  LEU A   3     -24.252  10.813  -9.371  0.00  0.00    +0.029 C 
BRANCH  21  22
ATOM     22  CG  LEU A   3     -25.750  11.040  -9.533  0.00  0.00    +0.002 C 
ATOM     23  CD2 LEU A   3     -26.491   9.820  -8.996  0.00  0.00    +0.000 C 
ATOM     24  CD1 LEU A   3     -26.099  11.267 -11.005  0.00  0.00    +0.000 C 
ENDBRANCH  21  22
ENDBRANCH   5  21
ENDBRANCH   3   5
BRANCH   1  25
ATOM     25  CA  HIS A   2     -23.373  13.795  -5.782  0.00  0.00    +0.155 C 
BRANCH  25  27
ATOM     26  C   SER A   1     -24.853  15.613  -5.214  0.00  0.00    +0.241 C 
ATOM     27  N   HIS A   2     -24.278  14.463  -4.880  0.00  0.00    -0.297 N 
ATOM     28  H   HIS A   2     -24.484  14.038  -3.953  0.00  0.00    +0.150 HD
ATOM     29  O   SER A   1     -24.772  16.099  -6.366  0.00  0.00    -0.274 OA
BRANCH  26  30
ATOM     30  CA  SER A   1     -25.617  16.358  -4.115  0.00  0.00    +0.174 C 
BRANCH  30  31
ATOM     31  N   SER A   1     -26.140  15.452  -3.094  0.00  0.00    -0.236 NA
ATOM     32  H   SER A   1     -25.620  15.341  -2.200  0.00  0.00    +0.142 HD
ENDBRANCH  30  31
BRANCH  30  33
ATOM     33  CB  SER A   1     -24.699  17.390  -3.427  0.00  0.00    +0.163 C 
BRANCH  33  34
ATOM     34  OG  SER A   1     -23.627  16.712  -2.799  0.00  0.00    -0.380 OA
ATOM     35  H   SER A   1     -23.112  16.209  -3.479  0.00  0.00    +0.211 HD
ENDBRANCH  33  34
ENDBRANCH  30  33
ENDBRANCH  26  30
ENDBRANCH  25  27
BRANCH  25  36
ATOM     36  CB  HIS A   2     -21.966  13.751  -5.177  0.00  0.00    +0.076 C 
BRANCH  36  37
ATOM     37  CG  HIS A   2     -21.211  15.024  -5.272  0.00  0.00    +0.082 A 
ATOM     38  ND1 HIS A   2     -21.518  16.136  -4.526  0.00  0.00    -0.227 NA
ATOM     39  CE1 HIS A   2     -20.653  17.096  -4.791  0.00  0.00    +0.199 A 
ATOM     40  NE2 HIS A   2     -19.777  16.636  -5.668  0.00  0.00    -0.221 NA
ATOM     41  CD2 HIS A   2     -20.091  15.345  -5.980  0.00  0.00    +0.115 A 
ENDBRANCH  36  37
ENDBRANCH  25  36
ENDBRANCH   1  25
TORSDOF 18
REMARK  Name = ../refined-set-2016/4v24/4v24_pocket.pdb
REMARK  307 active torsions:
REMARK  status: ('A' for Active; 'I' for Inactive)
REMARK    1  A    between atoms: _1  and  _3
REMARK    2  A    between atoms: _3  and  _4
REMARK    3  A    between atoms: _6  and  _8
REMARK    4  A    between atoms: _8  and  _9
REMARK    5  A    between atoms: _8  and  _11
REMARK    6  A    between atoms: _11  and  _12
REMARK    7  A    between atoms: _15  and  _17
REMARK    8  A    between atoms: _17  and  _18
REMARK    9  A    between atoms: _20  and  _22
REMARK   10  A    between atoms: _22  and  _23
REMARK   11  A    between atoms: _25  and  _27
REMARK   12  A    between atoms: _27  and  _28
REMARK   13  A    between atoms: _27  and  _30
REMARK   14  A    between atoms: _30  and  _31
REMARK   15  A    between atoms: _36  and  _38
REMARK   16  A    between atoms: _38  and  _39
REMARK   17  A    between atoms: _42  and  _44
REMARK   18  A    between atoms: _44  and  _45
REMARK   19  A    between atoms: _44  and  _47
REMARK   20  A    between atoms: _47  and  _48
REMARK   21  A    between atoms: _51  and  _53
REMARK   22  A    between atoms: _53  and  _54
REMARK   23  A    between atoms: _53  and  _56
REMARK   24  A    between atoms: _56  and  _57
REMARK   25  A    between atoms: _60  and  _62
REMARK   26  A    between atoms: _62  and  _63
REMARK   27  A    between atoms: _62  and  _65
REMARK   28  A    between atoms: _65  and  _66
REMARK   29  A    between atoms: _68  and  _70
REMARK   30  A    between atoms: _70  and  _71
REMARK   31  A    between atoms: _70  and  _73
REMARK   32  A    between atoms: _73  and  _74
REMARK   33  A    between atoms: _77  and  _79
REMARK   34  A    between atoms: _79  and  _80
REMARK   35  A    between atoms: _83  and  _85
REMARK   36  A    between atoms: _85  and  _86
REMARK   37  A    between atoms: _85  and  _88
REMARK   38  A    between atoms: _88  and  _89
REMARK   39  A    between atoms: _99  and  _101
REMARK   40  A    between atoms: _101  and  _102
REMARK   41  A    between atoms: _101  and  _104
REMARK   42  A    between atoms: _104  and  _105
REMARK   43  A    between atoms: _111  and  _113
REMARK   44  A    between atoms: _113  and  _114
REMARK   45  A    between atoms: _113  and  _116
REMARK   46  A    between atoms: _116  and  _117
REMARK   47  A    between atoms: _120  and  _122
REMARK   48  A    between atoms: _122  and  _123
REMARK   49  A    between atoms: _126  and  _128
REMARK   50  A    between atoms: _128  and  _129
REMARK   51  A    between atoms: _128  and  _131
REMARK   52  A    between atoms: _131  and  _132
REMARK   53  A    between atoms: _135  and  _137
REMARK   54  A    between atoms: _137  and  _138
REMARK   55  A    between atoms: _137  and  _140
REMARK   56  A    between atoms: _143  and  _145
REMARK   57  A    between atoms: _145  and  _146
REMARK   58  A    between atoms: _145  and  _148
REMARK   59  A    between atoms: _148  and  _149
REMARK   60  A    between atoms: _152  and  _154
REMARK   61  A    between atoms: _154  and  _155
REMARK   62  A    between atoms: _154  and  _157
REMARK   63  A    between atoms: _157  and  _158
REMARK   64  A    between atoms: _161  and  _163
REMARK   65  A    between atoms: _163  and  _164
REMARK   66  A    between atoms: _163  and  _166
REMARK   67  A    between atoms: _166  and  _167
REMARK   68  A    between atoms: _169  and  _171
REMARK   69  A    between atoms: _171  and  _172
REMARK   70  A    between atoms: _171  and  _174
REMARK   71  A    between atoms: _174  and  _175
REMARK   72  A    between atoms: _175  and  _176
REMARK   73  A    between atoms: _179  and  _181
REMARK   74  A    between atoms: _181  and  _182
REMARK   75  A    between atoms: _181  and  _184
REMARK   76  A    between atoms: _184  and  _185
REMARK   77  A    between atoms: _185  and  _186
REMARK   78  A    between atoms: _186  and  _187
REMARK   79  A    between atoms: _196  and  _198
REMARK   80  A    between atoms: _198  and  _199
REMARK   81  A    between atoms: _198  and  _201
REMARK   82  A    between atoms: _201  and  _202
REMARK   83  A    between atoms: _208  and  _210
REMARK   84  A    between atoms: _210  and  _211
REMARK   85  A    between atoms: _210  and  _213
REMARK   86  A    between atoms: _213  and  _214
REMARK   87  A    between atoms: _217  and  _219
REMARK   88  A    between atoms: _219  and  _220
REMARK   89  A    between atoms: _222  and  _224
REMARK   90  A    between atoms: _224  and  _225
REMARK   91  A    between atoms: _224  and  _227
REMARK   92  A    between atoms: _227  and  _228
REMARK   93  A    between atoms: _231  and  _233
REMARK   94  A    between atoms: _233  and  _234
REMARK   95  A    between atoms: _233  and  _236
REMARK   96  A    between atoms: _236  and  _237
REMARK   97  A    between atoms: _243  and  _245
REMARK   98  A    between atoms: _245  and  _246
REMARK   99  A    between atoms: _245  and  _248
REMARK  100  A    between atoms: _248  and  _249
REMARK  101  A    between atoms: _249  and  _250
REMARK  102  A    between atoms: _250  and  _251
REMARK  103  A    between atoms: _260  and  _262
REMARK  104  A    between atoms: _262  and  _263
REMARK  105  A    between atoms: _262  and  _265
REMARK  106  A    between atoms: _265  and  _266
REMARK  107  A    between atoms: _269  and  _271
REMARK  108  A    between atoms: _271  and  _272
REMARK  109  A    between atoms: _271  and  _274
REMARK  110  A    between atoms: _274  and  _275
REMARK  111  A    between atoms: _278  and  _280
REMARK  112  A    between atoms: _280  and  _281
REMARK  113  A    between atoms: _280  and  _283
REMARK  114  A    between atoms: _286  and  _288
REMARK  115  A    between atoms: _288  and  _289
REMARK  116  A    between atoms: _288  and  _291
REMARK  117  A    between atoms: _291  and  _292
REMARK  118  A    between atoms: _295  and  _297
REMARK  119  A    between atoms: _297  and  _298
REMARK  120  A    between atoms: _297  and  _300
REMARK  121  A    between atoms: _303  and  _305
REMARK  122  A    between atoms: _305  and  _306
REMARK  123  A    between atoms: _305  and  _308
REMARK  124  A    between atoms: _308  and  _309
REMARK  125  A    between atoms: _312  and  _314
REMARK  126  A    between atoms: _314  and  _315
REMARK  127  A    between atoms: _318  and  _320
REMARK  128  A    between atoms: _320  and  _321
REMARK  129  A    between atoms: _320  and  _323
REMARK  130  A    between atoms: _323  and  _324
REMARK  131  A    between atoms: _327  and  _329
REMARK  132  A    between atoms: _329  and  _330
REMARK  133  A    between atoms: _329  and  _332
REMARK  134  A    between atoms: _332  and  _333
REMARK  135  A    between atoms: _335  and  _337
REMARK  136  A    between atoms: _337  and  _338
REMARK  137  A    between atoms: _337  and  _340
REMARK  138  A    between atoms: _340  and  _341
REMARK  139  A    between atoms: _346  and  _348
REMARK  140  A    between atoms: _348  and  _349
REMARK  141  A    between atoms: _348  and  _351
REMARK  142  A    between atoms: _351  and  _352
REMARK  143  A    between atoms: _355  and  _357
REMARK  144  A    between atoms: _357  and  _358
REMARK  145  A    between atoms: _360  and  _362
REMARK  146  A    between atoms: _362  and  _363
REMARK  147  A    between atoms: _362  and  _365
REMARK  148  A    between atoms: _365  and  _366
REMARK  149  A    between atoms: _368  and  _370
REMARK  150  A    between atoms: _370  and  _371
REMARK  151  A    between atoms: _370  and  _373
REMARK  152  A    between atoms: _373  and  _374
REMARK  153  A    between atoms: _374  and  _375
REMARK  154  A    between atoms: _377  and  _379
REMARK  155  A    between atoms: _379  and  _380
REMARK  156  A    between atoms: _379  and  _382
REMARK  157  A    between atoms: _382  and  _383
REMARK  158  A    between atoms: _389  and  _391
REMARK  159  A    between atoms: _391  and  _392
REMARK  160  A    between atoms: _395  and  _397
REMARK  161  A    between atoms: _397  and  _398
REMARK  162  A    between atoms: _402  and  _403
REMARK  163  A    between atoms: _408  and  _410
REMARK  164  A    between atoms: _410  and  _411
REMARK  165  A    between atoms: _410  and  _413
REMARK  166  A    between atoms: _413  and  _414
REMARK  167  A    between atoms: _414  and  _415
REMARK  168  A    between atoms: _417  and  _419
REMARK  169  A    between atoms: _419  and  _420
REMARK  170  A    between atoms: _419  and  _422
REMARK  171  A    between atoms: _422  and  _423
REMARK  172  A    between atoms: _428  and  _430
REMARK  173  A    between atoms: _430  and  _431
REMARK  174  A    between atoms: _430  and  _433
REMARK  175  A    between atoms: _433  and  _434
REMARK  176  A    between atoms: _437  and  _439
REMARK  177  A    between atoms: _439  and  _440
REMARK  178  A    between atoms: _439  and  _442
REMARK  179  A    between atoms: _442  and  _443
REMARK  180  A    between atoms: _449  and  _451
REMARK  181  A    between atoms: _451  and  _452
REMARK  182  A    between atoms: _451  and  _454
REMARK  183  A    between atoms: _454  and  _455
REMARK  184  A    between atoms: _460  and  _461
REMARK  185  A    between atoms: _463  and  _465
REMARK  186  A    between atoms: _465  and  _466
REMARK  187  A    between atoms: _465  and  _468
REMARK  188  A    between atoms: _471  and  _473
REMARK  189  A    between atoms: _473  and  _474
REMARK  190  A    between atoms: _473  and  _476
REMARK  191  A    between atoms: _479  and  _481
REMARK  192  A    between atoms: _481  and  _482
REMARK  193  A    between atoms: _481  and  _484
REMARK  194  A    between atoms: _484  and  _485
REMARK  195  A    between atoms: _487  and  _489
REMARK  196  A    between atoms: _489  and  _490
REMARK  197  A    between atoms: _489  and  _492
REMARK  198  A    between atoms: _492  and  _493
REMARK  199  A    between atoms: _493  and  _494
REMARK  200  A    between atoms: _494  and  _495
REMARK  201  A    between atoms: _504  and  _506
REMARK  202  A    between atoms: _506  and  _507
REMARK  203  A    between atoms: _506  and  _509
REMARK  204  A    between atoms: _509  and  _510
REMARK  205  A    between atoms: _510  and  _511
REMARK  206  A    between atoms: _513  and  _515
REMARK  207  A    between atoms: _515  and  _516
REMARK  208  A    between atoms: _515  and  _518
REMARK  209  A    between atoms: _518  and  _519
REMARK  210  A    between atoms: _522  and  _524
REMARK  211  A    between atoms: _524  and  _525
REMARK  212  A    between atoms: _524  and  _527
REMARK  213  A    between atoms: _527  and  _528
REMARK  214  A    between atoms: _531  and  _533
REMARK  215  A    between atoms: _533  and  _534
REMARK  216  A    between atoms: _533  and  _536
REMARK  217  A    between atoms: _536  and  _537
REMARK  218  A    between atoms: _537  and  _538
REMARK  219  A    between atoms: _538  and  _539
REMARK  220  A    between atoms: _548  and  _550
REMARK  221  A    between atoms: _550  and  _551
REMARK  222  A    between atoms: _550  and  _553
REMARK  223  A    between atoms: _553  and  _554
REMARK  224  A    between atoms: _557  and  _559
REMARK  225  A    between atoms: _559  and  _560
REMARK  226  A    between atoms: _559  and  _562
REMARK  227  A    between atoms: _562  and  _563
REMARK  228  A    between atoms: _569  and  _571
REMARK  229  A    between atoms: _571  and  _572
REMARK  230  A    between atoms: _571  and  _574
REMARK  231  A    between atoms: _574  and  _575
REMARK  232  A    between atoms: _578  and  _580
REMARK  233  A    between atoms: _580  and  _581
REMARK  234  A    between atoms: _584  and  _586
REMARK  235  A    between atoms: _586  and  _587
REMARK  236  A    between atoms: _586  and  _589
REMARK  237  A    between atoms: _589  and  _590
REMARK  238  A    between atoms: _590  and  _591
REMARK  239  A    between atoms: _593  and  _595
REMARK  240  A    between atoms: _595  and  _596
REMARK  241  A    between atoms: _595  and  _598
REMARK  242  A    between atoms: _598  and  _599
REMARK  243  A    between atoms: _599  and  _600
REMARK  244  A    between atoms: _603  and  _605
REMARK  245  A    between atoms: _605  and  _606
REMARK  246  A    between atoms: _605  and  _608
REMARK  247  A    between atoms: _608  and  _609
REMARK  248  A    between atoms: _609  and  _610
REMARK  249  A    between atoms: _610  and  _611
REMARK  250  A    between atoms: _620  and  _622
REMARK  251  A    between atoms: _622  and  _623
REMARK  252  A    between atoms: _622  and  _625
REMARK  253  A    between atoms: _625  and  _626
REMARK  254  A    between atoms: _631  and  _633
REMARK  255  A    between atoms: _633  and  _634
REMARK  256  A    between atoms: _633  and  _636
REMARK  257  A    between atoms: _636  and  _637
REMARK  258  A    between atoms: _637  and  _638
REMARK  259  A    between atoms: _640  and  _642
REMARK  260  A    between atoms: _642  and  _643
REMARK  261  A    between atoms: _642  and  _645
REMARK  262  A    between atoms: _645  and  _646
REMARK  263  A    between atoms: _651  and  _652
REMARK  264  A    between atoms: _654  and  _656
REMARK  265  A    between atoms: _656  and  _657
REMARK  266  A    between atoms: _656  and  _659
REMARK  267  A    between atoms: _661  and  _663
REMARK  268  A    between atoms: _663  and  _664
REMARK  269  A    between atoms: _663  and  _666
REMARK  270  A    between atoms: _666  and  _667
REMARK  271  A    between atoms: _672  and  _673
REMARK  272  A    between atoms: _675  and  _677
REMARK  273  A    between atoms: _677  and  _678
REMARK  274  A    between atoms: _677  and  _680
REMARK  275  A    between atoms: _680  and  _681
REMARK  276  A    between atoms: _684  and  _686
REMARK  277  A    between atoms: _686  and  _687
REMARK  278  A    between atoms: _686  and  _689
REMARK  279  A    between atoms: _692  and  _694
REMARK  280  A    between atoms: _694  and  _695
REMARK  281  A    between atoms: _694  and  _697
REMARK  282  A    between atoms: _697  and  _698
REMARK  283  A    between atoms: _703  and  _704
REMARK  284  A    between atoms: _706  and  _708
REMARK  285  A    between atoms: _708  and  _709
REMARK  286  A    between atoms: _708  and  _711
REMARK  287  A    between atoms: _711  and  _712
REMARK  288  A    between atoms: _718  and  _720
REMARK  289  A    between atoms: _720  and  _721
REMARK  290  A    between atoms: _724  and  _726
REMARK  291  A    between atoms: _726  and  _727
REMARK  292  A    between atoms: _726  and  _729
REMARK  293  A    between atoms: _732  and  _734
REMARK  294  A    between atoms: _734  and  _735
REMARK  295  A    between atoms: _734  and  _737
REMARK  296  A    between atoms: _737  and  _738
REMARK  297  A    between atoms: _741  and  _743
REMARK  298  A    between atoms: _743  and  _744
REMARK  299  A    between atoms: _746  and  _748
REMARK  300  A    between atoms: _748  and  _749
REMARK  301  A    between atoms: _748  and  _751
REMARK  302  A    between atoms: _751  and  _752
REMARK  303  A    between atoms: _752  and  _753
REMARK  304  A    between atoms: _756  and  _758
REMARK  305  A    between atoms: _758  and  _759
REMARK  306  A    between atoms: _758  and  _761
REMARK  307  A    between atoms: _761  and  _762
REMARK                            x       y       z     vdW  Elec       q    Type
REMARK                         _______ _______ _______ _____ _____    ______ ____
ROOT
ATOM      1  CA  ALA A   3     -25.440  16.109  -9.935  0.00  0.00    +0.149 C 
ATOM      2  CB  ALA A   3     -26.030  14.683  -9.830  0.00  0.00    +0.031 C 
ENDROOT
BRANCH   1   4
ATOM      3  C   PHE A   2     -23.294  17.162  -9.441  0.00  0.00    +0.241 C 
ATOM      4  N   ALA A   3     -24.202  16.222  -9.161  0.00  0.00    -0.297 N 
ATOM      5  H   ALA A   3     -24.026  15.559  -8.379  0.00  0.00    +0.150 HD
ATOM      6  O   PHE A   2     -23.555  18.180 -10.120  0.00  0.00    -0.273 OA
BRANCH   3   7
ATOM      7  CA  PHE A   2     -21.925  16.983  -8.806  0.00  0.00    +0.153 C 
BRANCH   7  10
ATOM      8  C   MET A   1     -21.201  14.746  -9.509  0.00  0.00    +0.238 C 
ATOM      9  O   MET A   1     -21.922  14.161  -8.728  0.00  0.00    -0.274 OA
ATOM     10  N   PHE A   2     -21.175  16.073  -9.645  0.00  0.00    -0.297 N 
ATOM     11  H   PHE A   2     -20.581  16.477 -10.397  0.00  0.00    +0.150 HD
BRANCH   8  12
ATOM     12  CA  MET A   1     -20.278  13.975 -10.447  0.00  0.00    +0.146 C 
BRANCH  12  13
ATOM     13  N   MET A   1     -19.003  13.760  -9.792  0.00  0.00    -0.238 NA
ATOM     14  H   MET A   1     -18.989  13.441  -8.802  0.00  0.00    +0.142 HD
ENDBRANCH  12  13
BRANCH  12  15
ATOM     15  CB  MET A   1     -20.909  12.659 -10.858  0.00  0.00    +0.038 C 
BRANCH  15  16
ATOM     16  CG  MET A   1     -20.094  11.914 -11.913  0.00  0.00    +0.060 C 
BRANCH  16  17
ATOM     17  SD  MET A   1     -20.936  10.349 -12.139  0.00  0.00    -0.139 S 
ATOM     18  CE  MET A   1     -19.822   9.487 -13.251  0.00  0.00    +0.069 C 
ENDBRANCH  16  17
ENDBRANCH  15  16
ENDBRANCH  12  15
ENDBRANCH   8  12
ENDBRANCH   7  10
BRANCH   7  19
ATOM     19  CB  PHE A   2     -21.135  18.300  -8.709  0.00  0.00    +0.055 C 
BRANCH  19  20
ATOM     20  CG  PHE A   2     -21.690  19.338  -7.785  0.00  0.00    -0.020 A 
ATOM     21  CD2 PHE A   2     -22.668  19.065  -6.825  0.00  0.00    -0.004 A 
ATOM     22  CE2 PHE A   2     -23.139  20.061  -5.998  0.00  0.00    -0.000 A 
ATOM     23  CZ  PHE A   2     -22.594  21.346  -6.049  0.00  0.00    -0.000 A 
ATOM     24  CE1 PHE A   2     -21.587  21.618  -6.965  0.00  0.00    -0.000 A 
ATOM     25  CD1 PHE A   2     -21.146  20.616  -7.823  0.00  0.00    -0.004 A 
ENDBRANCH  19  20
ENDBRANCH   7  19
ENDBRANCH   3   7
ENDBRANCH   1   4
BRANCH   1  26
ATOM     26  C   ALA A   3     -26.489  17.128  -9.548  0.00  0.00    +0.241 C 
ATOM     27  N   ALA A   4     -26.468  17.587  -8.315  0.00  0.00    -0.297 N 
ATOM     28  H   ALA A   4     -25.663  17.349  -7.701  0.00  0.00    +0.150 HD
ATOM     29  O   ALA A   3     -27.345  17.470 -10.366  0.00  0.00    -0.273 OA
BRANCH  27  30
ATOM     30  CA  ALA A   4     -27.532  18.412  -7.791  0.00  0.00    +0.149 C 
ATOM     31  CB  ALA A   4     -28.375  17.637  -6.777  0.00  0.00    +0.031 C 
BRANCH  30  32
ATOM     32  C   ALA A   4     -26.900  19.633  -7.151  0.00  0.00    +0.244 C 
ATOM     33  O   ALA A   4     -26.744  19.683  -5.926  0.00  0.00    -0.273 OA
ATOM     34  N   PRO A   5     -26.522  20.621  -7.979  0.00  0.00    -0.272 N 
ATOM     35  CA  PRO A   5     -25.834  21.794  -7.442  0.00  0.00    +0.152 C 
ATOM     36  CB  PRO A   5     -25.101  22.338  -8.660  0.00  0.00    +0.031 C 
ATOM     37  CG  PRO A   5     -26.000  22.005  -9.774  0.00  0.00    +0.024 C 
ATOM     38  CD  PRO A   5     -26.496  20.618  -9.456  0.00  0.00    +0.094 C 
BRANCH  35  39
ATOM     39  C   PRO A   5     -26.731  22.861  -6.860  0.00  0.00    +0.241 C 
ATOM     40  O   PRO A   5     -26.214  23.888  -6.413  0.00  0.00    -0.273 OA
ATOM     41  N   MET A   6     -28.041  22.622  -6.802  0.00  0.00    -0.298 N 
ATOM     42  H   MET A   6     -28.401  21.701  -7.124  0.00  0.00    +0.150 HD
BRANCH  41  43
ATOM     43  CA  MET A   6     -28.997  23.630  -6.292  0.00  0.00    +0.138 C 
BRANCH  43  44
ATOM     44  C   MET A   6     -29.106  23.737  -4.765  0.00  0.00    +0.227 C 
ATOM     45  O   MET A   6     -29.961  24.473  -4.267  0.00  0.00    -0.286 OA
ENDBRANCH  43  44
BRANCH  43  46
ATOM     46  CB  MET A   6     -30.404  23.422  -6.907  0.00  0.00    +0.039 C 
BRANCH  46  47
ATOM     47  CG  MET A   6     -31.055  22.070  -6.617  0.00  0.00    +0.060 C 
BRANCH  47  48
ATOM     48  SD  MET A   6     -30.366  20.721  -7.618  0.00  0.00    -0.139 S 
ATOM     49  CE  MET A   6     -30.668  21.215  -9.319  0.00  0.00    +0.069 C 
ENDBRANCH  47  48
ENDBRANCH  46  47
ENDBRANCH  43  46
ENDBRANCH  41  43
ENDBRANCH  35  39
ENDBRANCH  30  32
ENDBRANCH  27  30
ENDBRANCH   1  26
TORSDOF 19
REMARK  Name = ../refined-set-2016/4v24/4v24_pocket.pdb
REMARK  307 active torsions:
REMARK  status: ('A' for Active; 'I' for Inactive)
REMARK    1  A    between atoms: _1  and  _3
REMARK    2  A    between atoms: _3  and  _4
REMARK    3  A    between atoms: _6  and  _8
REMARK    4  A    between atoms: _8  and  _9
REMARK    5  A    between atoms: _8  and  _11
REMARK    6  A    between atoms: _11  and  _12
REMARK    7  A    between atoms: _15  and  _17
REMARK    8  A    between atoms: _17  and  _18
REMARK    9  A    between atoms: _20  and  _22
REMARK   10  A    between atoms: _22  and  _23
REMARK   11  A    between atoms: _25  and  _27
REMARK   12  A    between atoms: _27  and  _28
REMARK   13  A    between atoms: _27  and  _30
REMARK   14  A    between atoms: _30  and  _31
REMARK   15  A    between atoms: _36  and  _38
REMARK   16  A    between atoms: _38  and  _39
REMARK   17  A    between atoms: _42  and  _44
REMARK   18  A    between atoms: _44  and  _45
REMARK   19  A    between atoms: _44  and  _47
REMARK   20  A    between atoms: _47  and  _48
REMARK   21  A    between atoms: _51  and  _53
REMARK   22  A    between atoms: _53  and  _54
REMARK   23  A    between atoms: _53  and  _56
REMARK   24  A    between atoms: _56  and  _57
REMARK   25  A    between atoms: _60  and  _62
REMARK   26  A    between atoms: _62  and  _63
REMARK   27  A    between atoms: _62  and  _65
REMARK   28  A    between atoms: _65  and  _66
REMARK   29  A    between atoms: _68  and  _70
REMARK   30  A    between atoms: _70  and  _71
REMARK   31  A    between atoms: _70  and  _73
REMARK   32  A    between atoms: _73  and  _74
REMARK   33  A    between atoms: _77  and  _79
REMARK   34  A    between atoms: _79  and  _80
REMARK   35  A    between atoms: _83  and  _85
REMARK   36  A    between atoms: _85  and  _86
REMARK   37  A    between atoms: _85  and  _88
REMARK   38  A    between atoms: _88  and  _89
REMARK   39  A    between atoms: _99  and  _101
REMARK   40  A    between atoms: _101  and  _102
REMARK   41  A    between atoms: _101  and  _104
REMARK   42  A    between atoms: _104  and  _105
REMARK   43  A    between atoms: _111  and  _113
REMARK   44  A    between atoms: _113  and  _114
REMARK   45  A    between atoms: _113  and  _116
REMARK   46  A    between atoms: _116  and  _117
REMARK   47  A    between atoms: _120  and  _122
REMARK   48  A    between atoms: _122  and  _123
REMARK   49  A    between atoms: _126  and  _128
REMARK   50  A    between atoms: _128  and  _129
REMARK   51  A    between atoms: _128  and  _131
REMARK   52  A    between atoms: _131  and  _132
REMARK   53  A    between atoms: _135  and  _137
REMARK   54  A    between atoms: _137  and  _138
REMARK   55  A    between atoms: _137  and  _140
REMARK   56  A    between atoms: _143  and  _145
REMARK   57  A    between atoms: _145  and  _146
REMARK   58  A    between atoms: _145  and  _148
REMARK   59  A    between atoms: _148  and  _149
REMARK   60  A    between atoms: _152  and  _154
REMARK   61  A    between atoms: _154  and  _155
REMARK   62  A    between atoms: _154  and  _157
REMARK   63  A    between atoms: _157  and  _158
REMARK   64  A    between atoms: _161  and  _163
REMARK   65  A    between atoms: _163  and  _164
REMARK   66  A    between atoms: _163  and  _166
REMARK   67  A    between atoms: _166  and  _167
REMARK   68  A    between atoms: _169  and  _171
REMARK   69  A    between atoms: _171  and  _172
REMARK   70  A    between atoms: _171  and  _174
REMARK   71  A    between atoms: _174  and  _175
REMARK   72  A    between atoms: _175  and  _176
REMARK   73  A    between atoms: _179  and  _181
REMARK   74  A    between atoms: _181  and  _182
REMARK   75  A    between atoms: _181  and  _184
REMARK   76  A    between atoms: _184  and  _185
REMARK   77  A    between atoms: _185  and  _186
REMARK   78  A    between atoms: _186  and  _187
REMARK   79  A    between atoms: _196  and  _198
REMARK   80  A    between atoms: _198  and  _199
REMARK   81  A    between atoms: _198  and  _201
REMARK   82  A    between atoms: _201  and  _202
REMARK   83  A    between atoms: _208  and  _210
REMARK   84  A    between atoms: _210  and  _211
REMARK   85  A    between atoms: _210  and  _213
REMARK   86  A    between atoms: _213  and  _214
REMARK   87  A    between atoms: _217  and  _219
REMARK   88  A    between atoms: _219  and  _220
REMARK   89  A    between atoms: _222  and  _224
REMARK   90  A    between atoms: _224  and  _225
REMARK   91  A    between atoms: _224  and  _227
REMARK   92  A    between atoms: _227  and  _228
REMARK   93  A    between atoms: _231  and  _233
REMARK   94  A    between atoms: _233  and  _234
REMARK   95  A    between atoms: _233  and  _236
REMARK   96  A    between atoms: _236  and  _237
REMARK   97  A    between atoms: _243  and  _245
REMARK   98  A    between atoms: _245  and  _246
REMARK   99  A    between atoms: _245  and  _248
REMARK  100  A    between atoms: _248  and  _249
REMARK  101  A    between atoms: _249  and  _250
REMARK  102  A    between atoms: _250  and  _251
REMARK  103  A    between atoms: _260  and  _262
REMARK  104  A    between atoms: _262  and  _263
REMARK  105  A    between atoms: _262  and  _265
REMARK  106  A    between atoms: _265  and  _266
REMARK  107  A    between atoms: _269  and  _271
REMARK  108  A    between atoms: _271  and  _272
REMARK  109  A    between atoms: _271  and  _274
REMARK  110  A    between atoms: _274  and  _275
REMARK  111  A    between atoms: _278  and  _280
REMARK  112  A    between atoms: _280  and  _281
REMARK  113  A    between atoms: _280  and  _283
REMARK  114  A    between atoms: _286  and  _288
REMARK  115  A    between atoms: _288  and  _289
REMARK  116  A    between atoms: _288  and  _291
REMARK  117  A    between atoms: _291  and  _292
REMARK  118  A    between atoms: _295  and  _297
REMARK  119  A    between atoms: _297  and  _298
REMARK  120  A    between atoms: _297  and  _300
REMARK  121  A    between atoms: _303  and  _305
REMARK  122  A    between atoms: _305  and  _306
REMARK  123  A    between atoms: _305  and  _308
REMARK  124  A    between atoms: _308  and  _309
REMARK  125  A    between atoms: _312  and  _314
REMARK  126  A    between atoms: _314  and  _315
REMARK  127  A    between atoms: _318  and  _320
REMARK  128  A    between atoms: _320  and  _321
REMARK  129  A    between atoms: _320  and  _323
REMARK  130  A    between atoms: _323  and  _324
REMARK  131  A    between atoms: _327  and  _329
REMARK  132  A    between atoms: _329  and  _330
REMARK  133  A    between atoms: _329  and  _332
REMARK  134  A    between atoms: _332  and  _333
REMARK  135  A    between atoms: _335  and  _337
REMARK  136  A    between atoms: _337  and  _338
REMARK  137  A    between atoms: _337  and  _340
REMARK  138  A    between atoms: _340  and  _341
REMARK  139  A    between atoms: _346  and  _348
REMARK  140  A    between atoms: _348  and  _349
REMARK  141  A    between atoms: _348  and  _351
REMARK  142  A    between atoms: _351  and  _352
REMARK  143  A    between atoms: _355  and  _357
REMARK  144  A    between atoms: _357  and  _358
REMARK  145  A    between atoms: _360  and  _362
REMARK  146  A    between atoms: _362  and  _363
REMARK  147  A    between atoms: _362  and  _365
REMARK  148  A    between atoms: _365  and  _366
REMARK  149  A    between atoms: _368  and  _370
REMARK  150  A    between atoms: _370  and  _371
REMARK  151  A    between atoms: _370  and  _373
REMARK  152  A    between atoms: _373  and  _374
REMARK  153  A    between atoms: _374  and  _375
REMARK  154  A    between atoms: _377  and  _379
REMARK  155  A    between atoms: _379  and  _380
REMARK  156  A    between atoms: _379  and  _382
REMARK  157  A    between atoms: _382  and  _383
REMARK  158  A    between atoms: _389  and  _391
REMARK  159  A    between atoms: _391  and  _392
REMARK  160  A    between atoms: _395  and  _397
REMARK  161  A    between atoms: _397  and  _398
REMARK  162  A    between atoms: _402  and  _403
REMARK  163  A    between atoms: _408  and  _410
REMARK  164  A    between atoms: _410  and  _411
REMARK  165  A    between atoms: _410  and  _413
REMARK  166  A    between atoms: _413  and  _414
REMARK  167  A    between atoms: _414  and  _415
REMARK  168  A    between atoms: _417  and  _419
REMARK  169  A    between atoms: _419  and  _420
REMARK  170  A    between atoms: _419  and  _422
REMARK  171  A    between atoms: _422  and  _423
REMARK  172  A    between atoms: _428  and  _430
REMARK  173  A    between atoms: _430  and  _431
REMARK  174  A    between atoms: _430  and  _433
REMARK  175  A    between atoms: _433  and  _434
REMARK  176  A    between atoms: _437  and  _439
REMARK  177  A    between atoms: _439  and  _440
REMARK  178  A    between atoms: _439  and  _442
REMARK  179  A    between atoms: _442  and  _443
REMARK  180  A    between atoms: _449  and  _451
REMARK  181  A    between atoms: _451  and  _452
REMARK  182  A    between atoms: _451  and  _454
REMARK  183  A    between atoms: _454  and  _455
REMARK  184  A    between atoms: _460  and  _461
REMARK  185  A    between atoms: _463  and  _465
REMARK  186  A    between atoms: _465  and  _466
REMARK  187  A    between atoms: _465  and  _468
REMARK  188  A    between atoms: _471  and  _473
REMARK  189  A    between atoms: _473  and  _474
REMARK  190  A    between atoms: _473  and  _476
REMARK  191  A    between atoms: _479  and  _481
REMARK  192  A    between atoms: _481  and  _482
REMARK  193  A    between atoms: _481  and  _484
REMARK  194  A    between atoms: _484  and  _485
REMARK  195  A    between atoms: _487  and  _489
REMARK  196  A    between atoms: _489  and  _490
REMARK  197  A    between atoms: _489  and  _492
REMARK  198  A    between atoms: _492  and  _493
REMARK  199  A    between atoms: _493  and  _494
REMARK  200  A    between atoms: _494  and  _495
REMARK  201  A    between atoms: _504  and  _506
REMARK  202  A    between atoms: _506  and  _507
REMARK  203  A    between atoms: _506  and  _509
REMARK  204  A    between atoms: _509  and  _510
REMARK  205  A    between atoms: _510  and  _511
REMARK  206  A    between atoms: _513  and  _515
REMARK  207  A    between atoms: _515  and  _516
REMARK  208  A    between atoms: _515  and  _518
REMARK  209  A    between atoms: _518  and  _519
REMARK  210  A    between atoms: _522  and  _524
REMARK  211  A    between atoms: _524  and  _525
REMARK  212  A    between atoms: _524  and  _527
REMARK  213  A    between atoms: _527  and  _528
REMARK  214  A    between atoms: _531  and  _533
REMARK  215  A    between atoms: _533  and  _534
REMARK  216  A    between atoms: _533  and  _536
REMARK  217  A    between atoms: _536  and  _537
REMARK  218  A    between atoms: _537  and  _538
REMARK  219  A    between atoms: _538  and  _539
REMARK  220  A    between atoms: _548  and  _550
REMARK  221  A    between atoms: _550  and  _551
REMARK  222  A    between atoms: _550  and  _553
REMARK  223  A    between atoms: _553  and  _554
REMARK  224  A    between atoms: _557  and  _559
REMARK  225  A    between atoms: _559  and  _560
REMARK  226  A    between atoms: _559  and  _562
REMARK  227  A    between atoms: _562  and  _563
REMARK  228  A    between atoms: _569  and  _571
REMARK  229  A    between atoms: _571  and  _572
REMARK  230  A    between atoms: _571  and  _574
REMARK  231  A    between atoms: _574  and  _575
REMARK  232  A    between atoms: _578  and  _580
REMARK  233  A    between atoms: _580  and  _581
REMARK  234  A    between atoms: _584  and  _586
REMARK  235  A    between atoms: _586  and  _587
REMARK  236  A    between atoms: _586  and  _589
REMARK  237  A    between atoms: _589  and  _590
REMARK  238  A    between atoms: _590  and  _591
REMARK  239  A    between atoms: _593  and  _595
REMARK  240  A    between atoms: _595  and  _596
REMARK  241  A    between atoms: _595  and  _598
REMARK  242  A    between atoms: _598  and  _599
REMARK  243  A    between atoms: _599  and  _600
REMARK  244  A    between atoms: _603  and  _605
REMARK  245  A    between atoms: _605  and  _606
REMARK  246  A    between atoms: _605  and  _608
REMARK  247  A    between atoms: _608  and  _609
REMARK  248  A    between atoms: _609  and  _610
REMARK  249  A    between atoms: _610  and  _611
REMARK  250  A    between atoms: _620  and  _622
REMARK  251  A    between atoms: _622  and  _623
REMARK  252  A    between atoms: _622  and  _625
REMARK  253  A    between atoms: _625  and  _626
REMARK  254  A    between atoms: _631  and  _633
REMARK  255  A    between atoms: _633  and  _634
REMARK  256  A    between atoms: _633  and  _636
REMARK  257  A    between atoms: _636  and  _637
REMARK  258  A    between atoms: _637  and  _638
REMARK  259  A    between atoms: _640  and  _642
REMARK  260  A    between atoms: _642  and  _643
REMARK  261  A    between atoms: _642  and  _645
REMARK  262  A    between atoms: _645  and  _646
REMARK  263  A    between atoms: _651  and  _652
REMARK  264  A    between atoms: _654  and  _656
REMARK  265  A    between atoms: _656  and  _657
REMARK  266  A    between atoms: _656  and  _659
REMARK  267  A    between atoms: _661  and  _663
REMARK  268  A    between atoms: _663  and  _664
REMARK  269  A    between atoms: _663  and  _666
REMARK  270  A    between atoms: _666  and  _667
REMARK  271  A    between atoms: _672  and  _673
REMARK  272  A    between atoms: _675  and  _677
REMARK  273  A    between atoms: _677  and  _678
REMARK  274  A    between atoms: _677  and  _680
REMARK  275  A    between atoms: _680  and  _681
REMARK  276  A    between atoms: _684  and  _686
REMARK  277  A    between atoms: _686  and  _687
REMARK  278  A    between atoms: _686  and  _689
REMARK  279  A    between atoms: _692  and  _694
REMARK  280  A    between atoms: _694  and  _695
REMARK  281  A    between atoms: _694  and  _697
REMARK  282  A    between atoms: _697  and  _698
REMARK  283  A    between atoms: _703  and  _704
REMARK  284  A    between atoms: _706  and  _708
REMARK  285  A    between atoms: _708  and  _709
REMARK  286  A    between atoms: _708  and  _711
REMARK  287  A    between atoms: _711  and  _712
REMARK  288  A    between atoms: _718  and  _720
REMARK  289  A    between atoms: _720  and  _721
REMARK  290  A    between atoms: _724  and  _726
REMARK  291  A    between atoms: _726  and  _727
REMARK  292  A    between atoms: _726  and  _729
REMARK  293  A    between atoms: _732  and  _734
REMARK  294  A    between atoms: _734  and  _735
REMARK  295  A    between atoms: _734  and  _737
REMARK  296  A    between atoms: _737  and  _738
REMARK  297  A    between atoms: _741  and  _743
REMARK  298  A    between atoms: _743  and  _744
REMARK  299  A    between atoms: _746  and  _748
REMARK  300  A    between atoms: _748  and  _749
REMARK  301  A    between atoms: _748  and  _751
REMARK  302  A    between atoms: _751  and  _752
REMARK  303  A    between atoms: _752  and  _753
REMARK  304  A    between atoms: _756  and  _758
REMARK  305  A    between atoms: _758  and  _759
REMARK  306  A    between atoms: _758  and  _761
REMARK  307  A    between atoms: _761  and  _762
REMARK                            x       y       z     vdW  Elec       q    Type
REMARK                         _______ _______ _______ _____ _____    ______ ____
ROOT
ATOM      1  CA  PHE A   3     -34.804  14.566 -12.179  0.00  0.00    +0.153 C 
ENDROOT
BRANCH   1   4
ATOM      2  C   LEU A   2     -35.892  14.971 -10.047  0.00  0.00    +0.241 C 
ATOM      3  O   LEU A   2     -36.246  16.121 -10.369  0.00  0.00    -0.273 OA
ATOM      4  N   PHE A   3     -35.187  14.175 -10.830  0.00  0.00    -0.297 N 
ATOM      5  H   PHE A   3     -34.897  13.242 -10.473  0.00  0.00    +0.150 HD
BRANCH   2   6
ATOM      6  CA  LEU A   2     -36.311  14.400  -8.701  0.00  0.00    +0.149 C 
BRANCH   6   9
ATOM      7  C   HIS A   1     -35.067  14.837  -6.685  0.00  0.00    +0.239 C 
ATOM      8  O   HIS A   1     -34.859  13.603  -6.497  0.00  0.00    -0.274 OA
ATOM      9  N   LEU A   2     -35.876  15.273  -7.629  0.00  0.00    -0.297 N 
ATOM     10  H   LEU A   2     -36.207  16.258  -7.605  0.00  0.00    +0.150 HD
BRANCH   7  11
ATOM     11  CA  HIS A   1     -34.409  15.907  -5.796  0.00  0.00    +0.151 C 
BRANCH  11  12
ATOM     12  N   HIS A   1     -34.478  15.455  -4.410  0.00  0.00    -0.238 NA
ATOM     13  H   HIS A   1     -33.636  15.026  -3.976  0.00  0.00    +0.142 HD
ENDBRANCH  11  12
BRANCH  11  14
ATOM     14  CB  HIS A   1     -32.951  16.043  -6.216  0.00  0.00    +0.074 C 
BRANCH  14  15
ATOM     15  CG  HIS A   1     -32.110  16.903  -5.335  0.00  0.00    +0.082 A 
ATOM     16  CD2 HIS A   1     -30.934  16.637  -4.709  0.00  0.00    +0.115 A 
ATOM     17  NE2 HIS A   1     -30.553  17.786  -4.058  0.00  0.00    -0.221 NA
ATOM     18  CE1 HIS A   1     -31.448  18.732  -4.294  0.00  0.00    +0.199 A 
ATOM     19  ND1 HIS A   1     -32.405  18.221  -5.047  0.00  0.00    -0.227 NA
ENDBRANCH  14  15
ENDBRANCH  11  14
ENDBRANCH   7  11
ENDBRANCH   6   9
BRANCH   6  20
ATOM     20  CB  LEU A   2     -37.833  14.203  -8.650  0.00  0.00    +0.029 C 
BRANCH  20  21
ATOM     21  CG  LEU A   2     -38.460  13.261  -9.663  0.00  0.00    +0.002 C 
ATOM     22  CD2 LEU A   2     -38.054  11.806  -9.387  0.00  0.00    +0.000 C 
ATOM     23  CD1 LEU A   2     -39.969  13.381  -9.573  0.00  0.00    +0.000 C 
ENDBRANCH  20  21
ENDBRANCH   6  20
ENDBRANCH   2   6
ENDBRANCH   1   4
BRANCH   1  24
ATOM     24  C   PHE A   3     -35.420  13.606 -13.119  0.00  0.00    +0.241 C 
ATOM     25  O   PHE A   3     -35.515  12.387 -12.844  0.00  0.00    -0.273 OA
ATOM     26  N   TYR A   4     -35.803  14.108 -14.277  0.00  0.00    -0.297 N 
ATOM     27  H   TYR A   4     -35.911  15.136 -14.387  0.00  0.00    +0.150 HD
BRANCH  26  28
ATOM     28  CA  TYR A   4     -36.074  13.225 -15.401  0.00  0.00    +0.153 C 
BRANCH  28  29
ATOM     29  C   TYR A   4     -35.711  13.881 -16.715  0.00  0.00    +0.241 C 
ATOM     30  O   TYR A   4     -35.684  15.106 -16.823  0.00  0.00    -0.273 OA
ATOM     31  N   VAL A   5     -35.386  13.037 -17.670  0.00  0.00    -0.298 N 
ATOM     32  H   VAL A   5     -35.392  12.020 -17.453  0.00  0.00    +0.150 HD
BRANCH  31  33
ATOM     33  CA  VAL A   5     -35.025  13.447 -18.993  0.00  0.00    +0.137 C 
BRANCH  33  34
ATOM     34  CB  VAL A   5     -33.627  12.975 -19.411  0.00  0.00    +0.026 C 
ATOM     35  CG2 VAL A   5     -32.563  13.570 -18.527  0.00  0.00    +0.002 C 
ATOM     36  CG1 VAL A   5     -33.393  13.383 -20.873  0.00  0.00    +0.002 C 
ENDBRANCH  33  34
BRANCH  33  37
ATOM     37  C   VAL A   5     -36.061  12.913 -19.949  0.00  0.00    +0.227 C 
ATOM     38  O   VAL A   5     -36.303  11.694 -20.034  0.00  0.00    -0.286 OA
ENDBRANCH  33  37
ENDBRANCH  31  33
ENDBRANCH  28  29
BRANCH  28  39
ATOM     39  CB  TYR A   4     -37.520  12.773 -15.416  0.00  0.00    +0.055 C 
BRANCH  39  40
ATOM     40  CG  TYR A   4     -38.561  13.846 -15.549  0.00  0.00    -0.020 A 
ATOM     41  CD2 TYR A   4     -39.047  14.477 -14.430  0.00  0.00    -0.001 A 
ATOM     42  CE2 TYR A   4     -40.056  15.413 -14.520  0.00  0.00    +0.036 A 
ATOM     43  CZ  TYR A   4     -40.592  15.742 -15.758  0.00  0.00    +0.134 A 
ATOM     44  CE1 TYR A   4     -40.111  15.159 -16.902  0.00  0.00    +0.036 A 
ATOM     45  CD1 TYR A   4     -39.099  14.200 -16.804  0.00  0.00    -0.001 A 
BRANCH  43  46
ATOM     46  OH  TYR A   4     -41.578  16.691 -15.805  0.00  0.00    -0.506 OA
ATOM     47  HH  TYR A   4     -41.790  16.991 -14.886  0.00  0.00    +0.292 HD
ENDBRANCH  43  46
ENDBRANCH  39  40
ENDBRANCH  28  39
ENDBRANCH  26  28
ENDBRANCH   1  24
BRANCH   1  48
ATOM     48  CB  PHE A   3     -33.271  14.510 -12.423  0.00  0.00    +0.055 C 
BRANCH  48  49
ATOM     49  CG  PHE A   3     -32.453  15.431 -11.594  0.00  0.00    -0.020 A 
ATOM     50  CD2 PHE A   3     -32.025  15.053 -10.343  0.00  0.00    -0.004 A 
ATOM     51  CE2 PHE A   3     -31.233  15.900  -9.562  0.00  0.00    -0.000 A 
ATOM     52  CZ  PHE A   3     -30.877  17.152 -10.039  0.00  0.00    -0.000 A 
ATOM     53  CE1 PHE A   3     -31.281  17.536 -11.294  0.00  0.00    -0.000 A 
ATOM     54  CD1 PHE A   3     -32.070  16.683 -12.067  0.00  0.00    -0.004 A 
ENDBRANCH  48  49
ENDBRANCH   1  48
TORSDOF 20
REMARK  Name = ../refined-set-2016/4v24/4v24_pocket.pdb
REMARK  307 active torsions:
REMARK  status: ('A' for Active; 'I' for Inactive)
REMARK    1  A    between atoms: _1  and  _3
REMARK    2  A    between atoms: _3  and  _4
REMARK    3  A    between atoms: _6  and  _8
REMARK    4  A    between atoms: _8  and  _9
REMARK    5  A    between atoms: _8  and  _11
REMARK    6  A    between atoms: _11  and  _12
REMARK    7  A    between atoms: _15  and  _17
REMARK    8  A    between atoms: _17  and  _18
REMARK    9  A    between atoms: _20  and  _22
REMARK   10  A    between atoms: _22  and  _23
REMARK   11  A    between atoms: _25  and  _27
REMARK   12  A    between atoms: _27  and  _28
REMARK   13  A    between atoms: _27  and  _30
REMARK   14  A    between atoms: _30  and  _31
REMARK   15  A    between atoms: _36  and  _38
REMARK   16  A    between atoms: _38  and  _39
REMARK   17  A    between atoms: _42  and  _44
REMARK   18  A    between atoms: _44  and  _45
REMARK   19  A    between atoms: _44  and  _47
REMARK   20  A    between atoms: _47  and  _48
REMARK   21  A    between atoms: _51  and  _53
REMARK   22  A    between atoms: _53  and  _54
REMARK   23  A    between atoms: _53  and  _56
REMARK   24  A    between atoms: _56  and  _57
REMARK   25  A    between atoms: _60  and  _62
REMARK   26  A    between atoms: _62  and  _63
REMARK   27  A    between atoms: _62  and  _65
REMARK   28  A    between atoms: _65  and  _66
REMARK   29  A    between atoms: _68  and  _70
REMARK   30  A    between atoms: _70  and  _71
REMARK   31  A    between atoms: _70  and  _73
REMARK   32  A    between atoms: _73  and  _74
REMARK   33  A    between atoms: _77  and  _79
REMARK   34  A    between atoms: _79  and  _80
REMARK   35  A    between atoms: _83  and  _85
REMARK   36  A    between atoms: _85  and  _86
REMARK   37  A    between atoms: _85  and  _88
REMARK   38  A    between atoms: _88  and  _89
REMARK   39  A    between atoms: _99  and  _101
REMARK   40  A    between atoms: _101  and  _102
REMARK   41  A    between atoms: _101  and  _104
REMARK   42  A    between atoms: _104  and  _105
REMARK   43  A    between atoms: _111  and  _113
REMARK   44  A    between atoms: _113  and  _114
REMARK   45  A    between atoms: _113  and  _116
REMARK   46  A    between atoms: _116  and  _117
REMARK   47  A    between atoms: _120  and  _122
REMARK   48  A    between atoms: _122  and  _123
REMARK   49  A    between atoms: _126  and  _128
REMARK   50  A    between atoms: _128  and  _129
REMARK   51  A    between atoms: _128  and  _131
REMARK   52  A    between atoms: _131  and  _132
REMARK   53  A    between atoms: _135  and  _137
REMARK   54  A    between atoms: _137  and  _138
REMARK   55  A    between atoms: _137  and  _140
REMARK   56  A    between atoms: _143  and  _145
REMARK   57  A    between atoms: _145  and  _146
REMARK   58  A    between atoms: _145  and  _148
REMARK   59  A    between atoms: _148  and  _149
REMARK   60  A    between atoms: _152  and  _154
REMARK   61  A    between atoms: _154  and  _155
REMARK   62  A    between atoms: _154  and  _157
REMARK   63  A    between atoms: _157  and  _158
REMARK   64  A    between atoms: _161  and  _163
REMARK   65  A    between atoms: _163  and  _164
REMARK   66  A    between atoms: _163  and  _166
REMARK   67  A    between atoms: _166  and  _167
REMARK   68  A    between atoms: _169  and  _171
REMARK   69  A    between atoms: _171  and  _172
REMARK   70  A    between atoms: _171  and  _174
REMARK   71  A    between atoms: _174  and  _175
REMARK   72  A    between atoms: _175  and  _176
REMARK   73  A    between atoms: _179  and  _181
REMARK   74  A    between atoms: _181  and  _182
REMARK   75  A    between atoms: _181  and  _184
REMARK   76  A    between atoms: _184  and  _185
REMARK   77  A    between atoms: _185  and  _186
REMARK   78  A    between atoms: _186  and  _187
REMARK   79  A    between atoms: _196  and  _198
REMARK   80  A    between atoms: _198  and  _199
REMARK   81  A    between atoms: _198  and  _201
REMARK   82  A    between atoms: _201  and  _202
REMARK   83  A    between atoms: _208  and  _210
REMARK   84  A    between atoms: _210  and  _211
REMARK   85  A    between atoms: _210  and  _213
REMARK   86  A    between atoms: _213  and  _214
REMARK   87  A    between atoms: _217  and  _219
REMARK   88  A    between atoms: _219  and  _220
REMARK   89  A    between atoms: _222  and  _224
REMARK   90  A    between atoms: _224  and  _225
REMARK   91  A    between atoms: _224  and  _227
REMARK   92  A    between atoms: _227  and  _228
REMARK   93  A    between atoms: _231  and  _233
REMARK   94  A    between atoms: _233  and  _234
REMARK   95  A    between atoms: _233  and  _236
REMARK   96  A    between atoms: _236  and  _237
REMARK   97  A    between atoms: _243  and  _245
REMARK   98  A    between atoms: _245  and  _246
REMARK   99  A    between atoms: _245  and  _248
REMARK  100  A    between atoms: _248  and  _249
REMARK  101  A    between atoms: _249  and  _250
REMARK  102  A    between atoms: _250  and  _251
REMARK  103  A    between atoms: _260  and  _262
REMARK  104  A    between atoms: _262  and  _263
REMARK  105  A    between atoms: _262  and  _265
REMARK  106  A    between atoms: _265  and  _266
REMARK  107  A    between atoms: _269  and  _271
REMARK  108  A    between atoms: _271  and  _272
REMARK  109  A    between atoms: _271  and  _274
REMARK  110  A    between atoms: _274  and  _275
REMARK  111  A    between atoms: _278  and  _280
REMARK  112  A    between atoms: _280  and  _281
REMARK  113  A    between atoms: _280  and  _283
REMARK  114  A    between atoms: _286  and  _288
REMARK  115  A    between atoms: _288  and  _289
REMARK  116  A    between atoms: _288  and  _291
REMARK  117  A    between atoms: _291  and  _292
REMARK  118  A    between atoms: _295  and  _297
REMARK  119  A    between atoms: _297  and  _298
REMARK  120  A    between atoms: _297  and  _300
REMARK  121  A    between atoms: _303  and  _305
REMARK  122  A    between atoms: _305  and  _306
REMARK  123  A    between atoms: _305  and  _308
REMARK  124  A    between atoms: _308  and  _309
REMARK  125  A    between atoms: _312  and  _314
REMARK  126  A    between atoms: _314  and  _315
REMARK  127  A    between atoms: _318  and  _320
REMARK  128  A    between atoms: _320  and  _321
REMARK  129  A    between atoms: _320  and  _323
REMARK  130  A    between atoms: _323  and  _324
REMARK  131  A    between atoms: _327  and  _329
REMARK  132  A    between atoms: _329  and  _330
REMARK  133  A    between atoms: _329  and  _332
REMARK  134  A    between atoms: _332  and  _333
REMARK  135  A    between atoms: _335  and  _337
REMARK  136  A    between atoms: _337  and  _338
REMARK  137  A    between atoms: _337  and  _340
REMARK  138  A    between atoms: _340  and  _341
REMARK  139  A    between atoms: _346  and  _348
REMARK  140  A    between atoms: _348  and  _349
REMARK  141  A    between atoms: _348  and  _351
REMARK  142  A    between atoms: _351  and  _352
REMARK  143  A    between atoms: _355  and  _357
REMARK  144  A    between atoms: _357  and  _358
REMARK  145  A    between atoms: _360  and  _362
REMARK  146  A    between atoms: _362  and  _363
REMARK  147  A    between atoms: _362  and  _365
REMARK  148  A    between atoms: _365  and  _366
REMARK  149  A    between atoms: _368  and  _370
REMARK  150  A    between atoms: _370  and  _371
REMARK  151  A    between atoms: _370  and  _373
REMARK  152  A    between atoms: _373  and  _374
REMARK  153  A    between atoms: _374  and  _375
REMARK  154  A    between atoms: _377  and  _379
REMARK  155  A    between atoms: _379  and  _380
REMARK  156  A    between atoms: _379  and  _382
REMARK  157  A    between atoms: _382  and  _383
REMARK  158  A    between atoms: _389  and  _391
REMARK  159  A    between atoms: _391  and  _392
REMARK  160  A    between atoms: _395  and  _397
REMARK  161  A    between atoms: _397  and  _398
REMARK  162  A    between atoms: _402  and  _403
REMARK  163  A    between atoms: _408  and  _410
REMARK  164  A    between atoms: _410  and  _411
REMARK  165  A    between atoms: _410  and  _413
REMARK  166  A    between atoms: _413  and  _414
REMARK  167  A    between atoms: _414  and  _415
REMARK  168  A    between atoms: _417  and  _419
REMARK  169  A    between atoms: _419  and  _420
REMARK  170  A    between atoms: _419  and  _422
REMARK  171  A    between atoms: _422  and  _423
REMARK  172  A    between atoms: _428  and  _430
REMARK  173  A    between atoms: _430  and  _431
REMARK  174  A    between atoms: _430  and  _433
REMARK  175  A    between atoms: _433  and  _434
REMARK  176  A    between atoms: _437  and  _439
REMARK  177  A    between atoms: _439  and  _440
REMARK  178  A    between atoms: _439  and  _442
REMARK  179  A    between atoms: _442  and  _443
REMARK  180  A    between atoms: _449  and  _451
REMARK  181  A    between atoms: _451  and  _452
REMARK  182  A    between atoms: _451  and  _454
REMARK  183  A    between atoms: _454  and  _455
REMARK  184  A    between atoms: _460  and  _461
REMARK  185  A    between atoms: _463  and  _465
REMARK  186  A    between atoms: _465  and  _466
REMARK  187  A    between atoms: _465  and  _468
REMARK  188  A    between atoms: _471  and  _473
REMARK  189  A    between atoms: _473  and  _474
REMARK  190  A    between atoms: _473  and  _476
REMARK  191  A    between atoms: _479  and  _481
REMARK  192  A    between atoms: _481  and  _482
REMARK  193  A    between atoms: _481  and  _484
REMARK  194  A    between atoms: _484  and  _485
REMARK  195  A    between atoms: _487  and  _489
REMARK  196  A    between atoms: _489  and  _490
REMARK  197  A    between atoms: _489  and  _492
REMARK  198  A    between atoms: _492  and  _493
REMARK  199  A    between atoms: _493  and  _494
REMARK  200  A    between atoms: _494  and  _495
REMARK  201  A    between atoms: _504  and  _506
REMARK  202  A    between atoms: _506  and  _507
REMARK  203  A    between atoms: _506  and  _509
REMARK  204  A    between atoms: _509  and  _510
REMARK  205  A    between atoms: _510  and  _511
REMARK  206  A    between atoms: _513  and  _515
REMARK  207  A    between atoms: _515  and  _516
REMARK  208  A    between atoms: _515  and  _518
REMARK  209  A    between atoms: _518  and  _519
REMARK  210  A    between atoms: _522  and  _524
REMARK  211  A    between atoms: _524  and  _525
REMARK  212  A    between atoms: _524  and  _527
REMARK  213  A    between atoms: _527  and  _528
REMARK  214  A    between atoms: _531  and  _533
REMARK  215  A    between atoms: _533  and  _534
REMARK  216  A    between atoms: _533  and  _536
REMARK  217  A    between atoms: _536  and  _537
REMARK  218  A    between atoms: _537  and  _538
REMARK  219  A    between atoms: _538  and  _539
REMARK  220  A    between atoms: _548  and  _550
REMARK  221  A    between atoms: _550  and  _551
REMARK  222  A    between atoms: _550  and  _553
REMARK  223  A    between atoms: _553  and  _554
REMARK  224  A    between atoms: _557  and  _559
REMARK  225  A    between atoms: _559  and  _560
REMARK  226  A    between atoms: _559  and  _562
REMARK  227  A    between atoms: _562  and  _563
REMARK  228  A    between atoms: _569  and  _571
REMARK  229  A    between atoms: _571  and  _572
REMARK  230  A    between atoms: _571  and  _574
REMARK  231  A    between atoms: _574  and  _575
REMARK  232  A    between atoms: _578  and  _580
REMARK  233  A    between atoms: _580  and  _581
REMARK  234  A    between atoms: _584  and  _586
REMARK  235  A    between atoms: _586  and  _587
REMARK  236  A    between atoms: _586  and  _589
REMARK  237  A    between atoms: _589  and  _590
REMARK  238  A    between atoms: _590  and  _591
REMARK  239  A    between atoms: _593  and  _595
REMARK  240  A    between atoms: _595  and  _596
REMARK  241  A    between atoms: _595  and  _598
REMARK  242  A    between atoms: _598  and  _599
REMARK  243  A    between atoms: _599  and  _600
REMARK  244  A    between atoms: _603  and  _605
REMARK  245  A    between atoms: _605  and  _606
REMARK  246  A    between atoms: _605  and  _608
REMARK  247  A    between atoms: _608  and  _609
REMARK  248  A    between atoms: _609  and  _610
REMARK  249  A    between atoms: _610  and  _611
REMARK  250  A    between atoms: _620  and  _622
REMARK  251  A    between atoms: _622  and  _623
REMARK  252  A    between atoms: _622  and  _625
REMARK  253  A    between atoms: _625  and  _626
REMARK  254  A    between atoms: _631  and  _633
REMARK  255  A    between atoms: _633  and  _634
REMARK  256  A    between atoms: _633  and  _636
REMARK  257  A    between atoms: _636  and  _637
REMARK  258  A    between atoms: _637  and  _638
REMARK  259  A    between atoms: _640  and  _642
REMARK  260  A    between atoms: _642  and  _643
REMARK  261  A    between atoms: _642  and  _645
REMARK  262  A    between atoms: _645  and  _646
REMARK  263  A    between atoms: _651  and  _652
REMARK  264  A    between atoms: _654  and  _656
REMARK  265  A    between atoms: _656  and  _657
REMARK  266  A    between atoms: _656  and  _659
REMARK  267  A    between atoms: _661  and  _663
REMARK  268  A    between atoms: _663  and  _664
REMARK  269  A    between atoms: _663  and  _666
REMARK  270  A    between atoms: _666  and  _667
REMARK  271  A    between atoms: _672  and  _673
REMARK  272  A    between atoms: _675  and  _677
REMARK  273  A    between atoms: _677  and  _678
REMARK  274  A    between atoms: _677  and  _680
REMARK  275  A    between atoms: _680  and  _681
REMARK  276  A    between atoms: _684  and  _686
REMARK  277  A    between atoms: _686  and  _687
REMARK  278  A    between atoms: _686  and  _689
REMARK  279  A    between atoms: _692  and  _694
REMARK  280  A    between atoms: _694  and  _695
REMARK  281  A    between atoms: _694  and  _697
REMARK  282  A    between atoms: _697  and  _698
REMARK  283  A    between atoms: _703  and  _704
REMARK  284  A    between atoms: _706  and  _708
REMARK  285  A    between atoms: _708  and  _709
REMARK  286  A    between atoms: _708  and  _711
REMARK  287  A    between atoms: _711  and  _712
REMARK  288  A    between atoms: _718  and  _720
REMARK  289  A    between atoms: _720  and  _721
REMARK  290  A    between atoms: _724  and  _726
REMARK  291  A    between atoms: _726  and  _727
REMARK  292  A    between atoms: _726  and  _729
REMARK  293  A    between atoms: _732  and  _734
REMARK  294  A    between atoms: _734  and  _735
REMARK  295  A    between atoms: _734  and  _737
REMARK  296  A    between atoms: _737  and  _738
REMARK  297  A    between atoms: _741  and  _743
REMARK  298  A    between atoms: _743  and  _744
REMARK  299  A    between atoms: _746  and  _748
REMARK  300  A    between atoms: _748  and  _749
REMARK  301  A    between atoms: _748  and  _751
REMARK  302  A    between atoms: _751  and  _752
REMARK  303  A    between atoms: _752  and  _753
REMARK  304  A    between atoms: _756  and  _758
REMARK  305  A    between atoms: _758  and  _759
REMARK  306  A    between atoms: _758  and  _761
REMARK  307  A    between atoms: _761  and  _762
REMARK                            x       y       z     vdW  Elec       q    Type
REMARK                         _______ _______ _______ _____ _____    ______ ____
ROOT
ATOM      1  C   SER A   2     -28.703  13.591 -27.820  0.00  0.00    +0.243 C 
ATOM      2  O   SER A   2     -28.444  14.009 -26.676  0.00  0.00    -0.273 OA
ATOM      3  N   ARG A   3     -27.996  12.636 -28.428  0.00  0.00    -0.298 N 
ATOM      4  H   ARG A   3     -28.298  12.290 -29.361  0.00  0.00    +0.150 HD
ENDROOT
BRANCH   1   5
ATOM      5  CA  SER A   2     -29.816  14.213 -28.652  0.00  0.00    +0.178 C 
BRANCH   5   8
ATOM      6  C   VAL A   1     -31.843  14.106 -27.348  0.00  0.00    +0.238 C 
ATOM      7  O   VAL A   1     -31.926  12.885 -27.538  0.00  0.00    -0.274 OA
ATOM      8  N   SER A   2     -30.841  14.828 -27.823  0.00  0.00    -0.295 N 
ATOM      9  H   SER A   2     -30.786  15.843 -27.602  0.00  0.00    +0.150 HD
BRANCH   6  10
ATOM     10  CA  VAL A   1     -32.869  14.858 -26.491  0.00  0.00    +0.145 C 
BRANCH  10  11
ATOM     11  CB  VAL A   1     -32.435  14.817 -24.988  0.00  0.00    +0.025 C 
ATOM     12  CG2 VAL A   1     -32.140  13.401 -24.551  0.00  0.00    +0.002 C 
ATOM     13  CG1 VAL A   1     -31.250  15.730 -24.720  0.00  0.00    +0.002 C 
ENDBRANCH  10  11
BRANCH  10  14
ATOM     14  N   VAL A   1     -34.195  14.292 -26.676  0.00  0.00    -0.238 NA
ATOM     15  H   VAL A   1     -34.668  13.841 -25.867  0.00  0.00    +0.142 HD
ENDBRANCH  10  14
ENDBRANCH   6  10
ENDBRANCH   5   8
BRANCH   5  16
ATOM     16  CB  SER A   2     -29.204  15.268 -29.546  0.00  0.00    +0.166 C 
BRANCH  16  17
ATOM     17  OG  SER A   2     -28.518  16.202 -28.762  0.00  0.00    -0.380 OA
ATOM     18  H   SER A   2     -29.150  16.629 -28.131  0.00  0.00    +0.211 HD
ENDBRANCH  16  17
ENDBRANCH   5  16
ENDBRANCH   1   5
BRANCH   3  19
ATOM     19  CA  ARG A   3     -26.811  12.073 -27.805  0.00  0.00    +0.137 C 
BRANCH  19  20
ATOM     20  C   ARG A   3     -25.829  13.147 -27.486  0.00  0.00    +0.227 C 
ATOM     21  O   ARG A   3     -25.160  13.078 -26.469  0.00  0.00    -0.286 OA
ENDBRANCH  19  20
BRANCH  19  22
ATOM     22  CB  ARG A   3     -26.123  11.046 -28.690  0.00  0.00    +0.031 C 
BRANCH  22  23
ATOM     23  CG  ARG A   3     -26.894   9.768 -28.899  0.00  0.00    +0.045 C 
BRANCH  23  24
ATOM     24  CD  ARG A   3     -26.243   8.880 -29.960  0.00  0.00    +0.174 C 
BRANCH  24  25
ATOM     25  NE  ARG A   3     -27.295   8.120 -30.641  0.00  0.00    -0.265 N 
ATOM     26  CZ  ARG A   3     -27.427   6.799 -30.652  0.00  0.00    +0.342 C 
ATOM     27  NH2 ARG A   3     -26.543   6.024 -30.066  0.00  0.00    -0.292 N 
ATOM     28 HH21 ARG A   3     -25.723   6.443 -29.583  0.00  0.00    +0.255 HD
ATOM     29 HH22 ARG A   3     -26.663   4.991 -30.085  0.00  0.00    +0.255 HD
ATOM     30  NH1 ARG A   3     -28.441   6.242 -31.286  0.00  0.00    -0.292 N 
ATOM     31 HH11 ARG A   3     -28.544   5.207 -31.294  0.00  0.00    +0.255 HD
ATOM     32 HH12 ARG A   3     -29.137   6.838 -31.778  0.00  0.00    +0.255 HD
ATOM     33  HE  ARG A   3     -28.006   8.668 -31.166  0.00  0.00    +0.259 HD
ENDBRANCH  24  25
ENDBRANCH  23  24
ENDBRANCH  22  23
ENDBRANCH  19  22
ENDBRANCH   3  19
TORSDOF 13
REMARK  Name = ../refined-set-2016/4v24/4v24_pocket.pdb
REMARK  307 active torsions:
REMARK  status: ('A' for Active; 'I' for Inactive)
REMARK    1  A    between atoms: _1  and  _3
REMARK    2  A    between atoms: _3  and  _4
REMARK    3  A    between atoms: _6  and  _8
REMARK    4  A    between atoms: _8  and  _9
REMARK    5  A    between atoms: _8  and  _11
REMARK    6  A    between atoms: _11  and  _12
REMARK    7  A    between atoms: _15  and  _17
REMARK    8  A    between atoms: _17  and  _18
REMARK    9  A    between atoms: _20  and  _22
REMARK   10  A    between atoms: _22  and  _23
REMARK   11  A    between atoms: _25  and  _27
REMARK   12  A    between atoms: _27  and  _28
REMARK   13  A    between atoms: _27  and  _30
REMARK   14  A    between atoms: _30  and  _31
REMARK   15  A    between atoms: _36  and  _38
REMARK   16  A    between atoms: _38  and  _39
REMARK   17  A    between atoms: _42  and  _44
REMARK   18  A    between atoms: _44  and  _45
REMARK   19  A    between atoms: _44  and  _47
REMARK   20  A    between atoms: _47  and  _48
REMARK   21  A    between atoms: _51  and  _53
REMARK   22  A    between atoms: _53  and  _54
REMARK   23  A    between atoms: _53  and  _56
REMARK   24  A    between atoms: _56  and  _57
REMARK   25  A    between atoms: _60  and  _62
REMARK   26  A    between atoms: _62  and  _63
REMARK   27  A    between atoms: _62  and  _65
REMARK   28  A    between atoms: _65  and  _66
REMARK   29  A    between atoms: _68  and  _70
REMARK   30  A    between atoms: _70  and  _71
REMARK   31  A    between atoms: _70  and  _73
REMARK   32  A    between atoms: _73  and  _74
REMARK   33  A    between atoms: _77  and  _79
REMARK   34  A    between atoms: _79  and  _80
REMARK   35  A    between atoms: _83  and  _85
REMARK   36  A    between atoms: _85  and  _86
REMARK   37  A    between atoms: _85  and  _88
REMARK   38  A    between atoms: _88  and  _89
REMARK   39  A    between atoms: _99  and  _101
REMARK   40  A    between atoms: _101  and  _102
REMARK   41  A    between atoms: _101  and  _104
REMARK   42  A    between atoms: _104  and  _105
REMARK   43  A    between atoms: _111  and  _113
REMARK   44  A    between atoms: _113  and  _114
REMARK   45  A    between atoms: _113  and  _116
REMARK   46  A    between atoms: _116  and  _117
REMARK   47  A    between atoms: _120  and  _122
REMARK   48  A    between atoms: _122  and  _123
REMARK   49  A    between atoms: _126  and  _128
REMARK   50  A    between atoms: _128  and  _129
REMARK   51  A    between atoms: _128  and  _131
REMARK   52  A    between atoms: _131  and  _132
REMARK   53  A    between atoms: _135  and  _137
REMARK   54  A    between atoms: _137  and  _138
REMARK   55  A    between atoms: _137  and  _140
REMARK   56  A    between atoms: _143  and  _145
REMARK   57  A    between atoms: _145  and  _146
REMARK   58  A    between atoms: _145  and  _148
REMARK   59  A    between atoms: _148  and  _149
REMARK   60  A    between atoms: _152  and  _154
REMARK   61  A    between atoms: _154  and  _155
REMARK   62  A    between atoms: _154  and  _157
REMARK   63  A    between atoms: _157  and  _158
REMARK   64  A    between atoms: _161  and  _163
REMARK   65  A    between atoms: _163  and  _164
REMARK   66  A    between atoms: _163  and  _166
REMARK   67  A    between atoms: _166  and  _167
REMARK   68  A    between atoms: _169  and  _171
REMARK   69  A    between atoms: _171  and  _172
REMARK   70  A    between atoms: _171  and  _174
REMARK   71  A    between atoms: _174  and  _175
REMARK   72  A    between atoms: _175  and  _176
REMARK   73  A    between atoms: _179  and  _181
REMARK   74  A    between atoms: _181  and  _182
REMARK   75  A    between atoms: _181  and  _184
REMARK   76  A    between atoms: _184  and  _185
REMARK   77  A    between atoms: _185  and  _186
REMARK   78  A    between atoms: _186  and  _187
REMARK   79  A    between atoms: _196  and  _198
REMARK   80  A    between atoms: _198  and  _199
REMARK   81  A    between atoms: _198  and  _201
REMARK   82  A    between atoms: _201  and  _202
REMARK   83  A    between atoms: _208  and  _210
REMARK   84  A    between atoms: _210  and  _211
REMARK   85  A    between atoms: _210  and  _213
REMARK   86  A    between atoms: _213  and  _214
REMARK   87  A    between atoms: _217  and  _219
REMARK   88  A    between atoms: _219  and  _220
REMARK   89  A    between atoms: _222  and  _224
REMARK   90  A    between atoms: _224  and  _225
REMARK   91  A    between atoms: _224  and  _227
REMARK   92  A    between atoms: _227  and  _228
REMARK   93  A    between atoms: _231  and  _233
REMARK   94  A    between atoms: _233  and  _234
REMARK   95  A    between atoms: _233  and  _236
REMARK   96  A    between atoms: _236  and  _237
REMARK   97  A    between atoms: _243  and  _245
REMARK   98  A    between atoms: _245  and  _246
REMARK   99  A    between atoms: _245  and  _248
REMARK  100  A    between atoms: _248  and  _249
REMARK  101  A    between atoms: _249  and  _250
REMARK  102  A    between atoms: _250  and  _251
REMARK  103  A    between atoms: _260  and  _262
REMARK  104  A    between atoms: _262  and  _263
REMARK  105  A    between atoms: _262  and  _265
REMARK  106  A    between atoms: _265  and  _266
REMARK  107  A    between atoms: _269  and  _271
REMARK  108  A    between atoms: _271  and  _272
REMARK  109  A    between atoms: _271  and  _274
REMARK  110  A    between atoms: _274  and  _275
REMARK  111  A    between atoms: _278  and  _280
REMARK  112  A    between atoms: _280  and  _281
REMARK  113  A    between atoms: _280  and  _283
REMARK  114  A    between atoms: _286  and  _288
REMARK  115  A    between atoms: _288  and  _289
REMARK  116  A    between atoms: _288  and  _291
REMARK  117  A    between atoms: _291  and  _292
REMARK  118  A    between atoms: _295  and  _297
REMARK  119  A    between atoms: _297  and  _298
REMARK  120  A    between atoms: _297  and  _300
REMARK  121  A    between atoms: _303  and  _305
REMARK  122  A    between atoms: _305  and  _306
REMARK  123  A    between atoms: _305  and  _308
REMARK  124  A    between atoms: _308  and  _309
REMARK  125  A    between atoms: _312  and  _314
REMARK  126  A    between atoms: _314  and  _315
REMARK  127  A    between atoms: _318  and  _320
REMARK  128  A    between atoms: _320  and  _321
REMARK  129  A    between atoms: _320  and  _323
REMARK  130  A    between atoms: _323  and  _324
REMARK  131  A    between atoms: _327  and  _329
REMARK  132  A    between atoms: _329  and  _330
REMARK  133  A    between atoms: _329  and  _332
REMARK  134  A    between atoms: _332  and  _333
REMARK  135  A    between atoms: _335  and  _337
REMARK  136  A    between atoms: _337  and  _338
REMARK  137  A    between atoms: _337  and  _340
REMARK  138  A    between atoms: _340  and  _341
REMARK  139  A    between atoms: _346  and  _348
REMARK  140  A    between atoms: _348  and  _349
REMARK  141  A    between atoms: _348  and  _351
REMARK  142  A    between atoms: _351  and  _352
REMARK  143  A    between atoms: _355  and  _357
REMARK  144  A    between atoms: _357  and  _358
REMARK  145  A    between atoms: _360  and  _362
REMARK  146  A    between atoms: _362  and  _363
REMARK  147  A    between atoms: _362  and  _365
REMARK  148  A    between atoms: _365  and  _366
REMARK  149  A    between atoms: _368  and  _370
REMARK  150  A    between atoms: _370  and  _371
REMARK  151  A    between atoms: _370  and  _373
REMARK  152  A    between atoms: _373  and  _374
REMARK  153  A    between atoms: _374  and  _375
REMARK  154  A    between atoms: _377  and  _379
REMARK  155  A    between atoms: _379  and  _380
REMARK  156  A    between atoms: _379  and  _382
REMARK  157  A    between atoms: _382  and  _383
REMARK  158  A    between atoms: _389  and  _391
REMARK  159  A    between atoms: _391  and  _392
REMARK  160  A    between atoms: _395  and  _397
REMARK  161  A    between atoms: _397  and  _398
REMARK  162  A    between atoms: _402  and  _403
REMARK  163  A    between atoms: _408  and  _410
REMARK  164  A    between atoms: _410  and  _411
REMARK  165  A    between atoms: _410  and  _413
REMARK  166  A    between atoms: _413  and  _414
REMARK  167  A    between atoms: _414  and  _415
REMARK  168  A    between atoms: _417  and  _419
REMARK  169  A    between atoms: _419  and  _420
REMARK  170  A    between atoms: _419  and  _422
REMARK  171  A    between atoms: _422  and  _423
REMARK  172  A    between atoms: _428  and  _430
REMARK  173  A    between atoms: _430  and  _431
REMARK  174  A    between atoms: _430  and  _433
REMARK  175  A    between atoms: _433  and  _434
REMARK  176  A    between atoms: _437  and  _439
REMARK  177  A    between atoms: _439  and  _440
REMARK  178  A    between atoms: _439  and  _442
REMARK  179  A    between atoms: _442  and  _443
REMARK  180  A    between atoms: _449  and  _451
REMARK  181  A    between atoms: _451  and  _452
REMARK  182  A    between atoms: _451  and  _454
REMARK  183  A    between atoms: _454  and  _455
REMARK  184  A    between atoms: _460  and  _461
REMARK  185  A    between atoms: _463  and  _465
REMARK  186  A    between atoms: _465  and  _466
REMARK  187  A    between atoms: _465  and  _468
REMARK  188  A    between atoms: _471  and  _473
REMARK  189  A    between atoms: _473  and  _474
REMARK  190  A    between atoms: _473  and  _476
REMARK  191  A    between atoms: _479  and  _481
REMARK  192  A    between atoms: _481  and  _482
REMARK  193  A    between atoms: _481  and  _484
REMARK  194  A    between atoms: _484  and  _485
REMARK  195  A    between atoms: _487  and  _489
REMARK  196  A    between atoms: _489  and  _490
REMARK  197  A    between atoms: _489  and  _492
REMARK  198  A    between atoms: _492  and  _493
REMARK  199  A    between atoms: _493  and  _494
REMARK  200  A    between atoms: _494  and  _495
REMARK  201  A    between atoms: _504  and  _506
REMARK  202  A    between atoms: _506  and  _507
REMARK  203  A    between atoms: _506  and  _509
REMARK  204  A    between atoms: _509  and  _510
REMARK  205  A    between atoms: _510  and  _511
REMARK  206  A    between atoms: _513  and  _515
REMARK  207  A    between atoms: _515  and  _516
REMARK  208  A    between atoms: _515  and  _518
REMARK  209  A    between atoms: _518  and  _519
REMARK  210  A    between atoms: _522  and  _524
REMARK  211  A    between atoms: _524  and  _525
REMARK  212  A    between atoms: _524  and  _527
REMARK  213  A    between atoms: _527  and  _528
REMARK  214  A    between atoms: _531  and  _533
REMARK  215  A    between atoms: _533  and  _534
REMARK  216  A    between atoms: _533  and  _536
REMARK  217  A    between atoms: _536  and  _537
REMARK  218  A    between atoms: _537  and  _538
REMARK  219  A    between atoms: _538  and  _539
REMARK  220  A    between atoms: _548  and  _550
REMARK  221  A    between atoms: _550  and  _551
REMARK  222  A    between atoms: _550  and  _553
REMARK  223  A    between atoms: _553  and  _554
REMARK  224  A    between atoms: _557  and  _559
REMARK  225  A    between atoms: _559  and  _560
REMARK  226  A    between atoms: _559  and  _562
REMARK  227  A    between atoms: _562  and  _563
REMARK  228  A    between atoms: _569  and  _571
REMARK  229  A    between atoms: _571  and  _572
REMARK  230  A    between atoms: _571  and  _574
REMARK  231  A    between atoms: _574  and  _575
REMARK  232  A    between atoms: _578  and  _580
REMARK  233  A    between atoms: _580  and  _581
REMARK  234  A    between atoms: _584  and  _586
REMARK  235  A    between atoms: _586  and  _587
REMARK  236  A    between atoms: _586  and  _589
REMARK  237  A    between atoms: _589  and  _590
REMARK  238  A    between atoms: _590  and  _591
REMARK  239  A    between atoms: _593  and  _595
REMARK  240  A    between atoms: _595  and  _596
REMARK  241  A    between atoms: _595  and  _598
REMARK  242  A    between atoms: _598  and  _599
REMARK  243  A    between atoms: _599  and  _600
REMARK  244  A    between atoms: _603  and  _605
REMARK  245  A    between atoms: _605  and  _606
REMARK  246  A    between atoms: _605  and  _608
REMARK  247  A    between atoms: _608  and  _609
REMARK  248  A    between atoms: _609  and  _610
REMARK  249  A    between atoms: _610  and  _611
REMARK  250  A    between atoms: _620  and  _622
REMARK  251  A    between atoms: _622  and  _623
REMARK  252  A    between atoms: _622  and  _625
REMARK  253  A    between atoms: _625  and  _626
REMARK  254  A    between atoms: _631  and  _633
REMARK  255  A    between atoms: _633  and  _634
REMARK  256  A    between atoms: _633  and  _636
REMARK  257  A    between atoms: _636  and  _637
REMARK  258  A    between atoms: _637  and  _638
REMARK  259  A    between atoms: _640  and  _642
REMARK  260  A    between atoms: _642  and  _643
REMARK  261  A    between atoms: _642  and  _645
REMARK  262  A    between atoms: _645  and  _646
REMARK  263  A    between atoms: _651  and  _652
REMARK  264  A    between atoms: _654  and  _656
REMARK  265  A    between atoms: _656  and  _657
REMARK  266  A    between atoms: _656  and  _659
REMARK  267  A    between atoms: _661  and  _663
REMARK  268  A    between atoms: _663  and  _664
REMARK  269  A    between atoms: _663  and  _666
REMARK  270  A    between atoms: _666  and  _667
REMARK  271  A    between atoms: _672  and  _673
REMARK  272  A    between atoms: _675  and  _677
REMARK  273  A    between atoms: _677  and  _678
REMARK  274  A    between atoms: _677  and  _680
REMARK  275  A    between atoms: _680  and  _681
REMARK  276  A    between atoms: _684  and  _686
REMARK  277  A    between atoms: _686  and  _687
REMARK  278  A    between atoms: _686  and  _689
REMARK  279  A    between atoms: _692  and  _694
REMARK  280  A    between atoms: _694  and  _695
REMARK  281  A    between atoms: _694  and  _697
REMARK  282  A    between atoms: _697  and  _698
REMARK  283  A    between atoms: _703  and  _704
REMARK  284  A    between atoms: _706  and  _708
REMARK  285  A    between atoms: _708  and  _709
REMARK  286  A    between atoms: _708  and  _711
REMARK  287  A    between atoms: _711  and  _712
REMARK  288  A    between atoms: _718  and  _720
REMARK  289  A    between atoms: _720  and  _721
REMARK  290  A    between atoms: _724  and  _726
REMARK  291  A    between atoms: _726  and  _727
REMARK  292  A    between atoms: _726  and  _729
REMARK  293  A    between atoms: _732  and  _734
REMARK  294  A    between atoms: _734  and  _735
REMARK  295  A    between atoms: _734  and  _737
REMARK  296  A    between atoms: _737  and  _738
REMARK  297  A    between atoms: _741  and  _743
REMARK  298  A    between atoms: _743  and  _744
REMARK  299  A    between atoms: _746  and  _748
REMARK  300  A    between atoms: _748  and  _749
REMARK  301  A    between atoms: _748  and  _751
REMARK  302  A    between atoms: _751  and  _752
REMARK  303  A    between atoms: _752  and  _753
REMARK  304  A    between atoms: _756  and  _758
REMARK  305  A    between atoms: _758  and  _759
REMARK  306  A    between atoms: _758  and  _761
REMARK  307  A    between atoms: _761  and  _762
REMARK                            x       y       z     vdW  Elec       q    Type
REMARK                         _______ _______ _______ _____ _____    ______ ____
ROOT
ATOM      1  CA  LEU A   5     -24.760  17.505 -19.837  0.00  0.00    +0.149 C 
ENDROOT
BRANCH   1   2
ATOM      2  C   LEU A   5     -23.912  16.641 -18.886  0.00  0.00    +0.241 C 
ATOM      3  O   LEU A   5     -23.529  17.092 -17.799  0.00  0.00    -0.273 OA
ATOM      4  N   PHE A   6     -23.622  15.413 -19.317  0.00  0.00    -0.297 N 
ATOM      5  H   PHE A   6     -23.990  15.092 -20.235  0.00  0.00    +0.150 HD
BRANCH   4   6
ATOM      6  CA  PHE A   6     -22.791  14.508 -18.514  0.00  0.00    +0.153 C 
BRANCH   6   7
ATOM      7  C   PHE A   6     -21.472  15.163 -18.137  0.00  0.00    +0.241 C 
ATOM      8  O   PHE A   6     -21.101  15.212 -16.956  0.00  0.00    -0.273 OA
ATOM      9  N   LEU A   7     -20.753  15.694 -19.141  0.00  0.00    -0.297 N 
ATOM     10  H   LEU A   7     -21.131  15.677 -20.110  0.00  0.00    +0.150 HD
BRANCH   9  11
ATOM     11  CA  LEU A   7     -19.442  16.296 -18.884  0.00  0.00    +0.149 C 
BRANCH  11  12
ATOM     12  C   LEU A   7     -19.495  17.529 -17.978  0.00  0.00    +0.241 C 
ATOM     13  O   LEU A   7     -18.638  17.719 -17.110  0.00  0.00    -0.273 OA
ATOM     14  N   ALA A   8     -20.541  18.327 -18.139  0.00  0.00    -0.297 N 
ATOM     15  H   ALA A   8     -21.237  18.092 -18.875  0.00  0.00    +0.150 HD
BRANCH  14  16
ATOM     16  CA  ALA A   8     -20.757  19.512 -17.335  0.00  0.00    +0.149 C 
ATOM     17  CB  ALA A   8     -21.884  20.340 -17.934  0.00  0.00    +0.031 C 
BRANCH  16  18
ATOM     18  C   ALA A   8     -21.058  19.177 -15.872  0.00  0.00    +0.241 C 
ATOM     19  O   ALA A   8     -20.877  20.015 -15.003  0.00  0.00    -0.273 OA
ATOM     20  N   MET A   9     -21.541  17.957 -15.624  0.00  0.00    -0.297 N 
ATOM     21  H   MET A   9     -21.692  17.301 -16.417  0.00  0.00    +0.150 HD
BRANCH  20  22
ATOM     22  CA  MET A   9     -21.865  17.517 -14.261  0.00  0.00    +0.149 C 
BRANCH  22  23
ATOM     23  C   MET A   9     -20.659  17.447 -13.322  0.00  0.00    +0.241 C 
ATOM     24  O   MET A   9     -20.789  17.632 -12.090  0.00  0.00    -0.273 OA
ATOM     25  N   GLU A  10     -19.461  17.298 -13.871  0.00  0.00    -0.298 N 
ATOM     26  H   GLU A  10     -19.374  17.157 -14.898  0.00  0.00    +0.150 HD
BRANCH  25  27
ATOM     27  CA  GLU A  10     -18.267  17.332 -13.039  0.00  0.00    +0.137 C 
BRANCH  27  28
ATOM     28  C   GLU A  10     -18.177  18.568 -12.128  0.00  0.00    +0.227 C 
ATOM     29  O   GLU A  10     -17.857  18.443 -10.943  0.00  0.00    -0.286 OA
ENDBRANCH  27  28
BRANCH  27  30
ATOM     30  CB  GLU A  10     -16.992  17.272 -13.893  0.00  0.00    +0.039 C 
BRANCH  30  31
ATOM     31  CG  GLU A  10     -15.743  17.111 -13.052  0.00  0.00    +0.116 C 
BRANCH  31  32
ATOM     32  CD  GLU A  10     -14.495  17.635 -13.734  0.00  0.00    +0.365 C 
ATOM     33  OE2 GLU A  10     -13.466  17.784 -13.057  0.00  0.00    -0.246 OA
ATOM     34  OE1 GLU A  10     -14.541  17.925 -14.946  0.00  0.00    -0.246 OA
ENDBRANCH  31  32
ENDBRANCH  30  31
ENDBRANCH  27  30
ENDBRANCH  25  27
ENDBRANCH  22  23
BRANCH  22  35
ATOM     35  CB  MET A   9     -22.646  16.188 -14.326  0.00  0.00    +0.041 C 
BRANCH  35  36
ATOM     36  CG  MET A   9     -23.231  15.728 -13.015  0.00  0.00    +0.060 C 
BRANCH  36  37
ATOM     37  SD  MET A   9     -24.256  14.263 -13.231  0.00  0.00    -0.139 S 
ATOM     38  CE  MET A   9     -23.128  13.180 -14.115  0.00  0.00    +0.069 C 
ENDBRANCH  36  37
ENDBRANCH  35  36
ENDBRANCH  22  35
ENDBRANCH  20  22
ENDBRANCH  16  18
ENDBRANCH  14  16
ENDBRANCH  11  12
BRANCH  11  39
ATOM     39  CB  LEU A   7     -18.765  16.659 -20.226  0.00  0.00    +0.029 C 
BRANCH  39  40
ATOM     40  CG  LEU A   7     -18.453  15.425 -21.067  0.00  0.00    +0.002 C 
ATOM     41  CD2 LEU A   7     -17.550  14.452 -20.310  0.00  0.00    +0.000 C 
ATOM     42  CD1 LEU A   7     -17.851  15.852 -22.405  0.00  0.00    +0.000 C 
ENDBRANCH  39  40
ENDBRANCH  11  39
ENDBRANCH   9  11
ENDBRANCH   6   7
BRANCH   6  43
ATOM     43  CB  PHE A   6     -22.541  13.210 -19.274  0.00  0.00    +0.055 C 
BRANCH  43  44
ATOM     44  CG  PHE A   6     -21.702  12.216 -18.513  0.00  0.00    -0.020 A 
ATOM     45  CD2 PHE A   6     -22.187  11.625 -17.349  0.00  0.00    -0.004 A 
ATOM     46  CE2 PHE A   6     -21.416  10.708 -16.641  0.00  0.00    -0.000 A 
ATOM     47  CZ  PHE A   6     -20.160  10.384 -17.083  0.00  0.00    -0.000 A 
ATOM     48  CE1 PHE A   6     -19.672  10.971 -18.241  0.00  0.00    -0.000 A 
ATOM     49  CD1 PHE A   6     -20.434  11.887 -18.940  0.00  0.00    -0.004 A 
ENDBRANCH  43  44
ENDBRANCH   6  43
ENDBRANCH   4   6
ENDBRANCH   1   2
BRANCH   1  52
ATOM     50  C   ARG A   4     -23.024  17.902 -21.477  0.00  0.00    +0.241 C 
ATOM     51  O   ARG A   4     -22.282  18.401 -20.645  0.00  0.00    -0.273 OA
ATOM     52  N   LEU A   5     -24.230  17.418 -21.186  0.00  0.00    -0.297 N 
ATOM     53  H   LEU A   5     -24.799  16.972 -21.934  0.00  0.00    +0.150 HD
BRANCH  50  54
ATOM     54  CA  ARG A   4     -22.594  17.797 -22.916  0.00  0.00    +0.149 C 
BRANCH  54  57
ATOM     55  C   LEU A   3     -22.478  15.393 -22.898  0.00  0.00    +0.241 C 
ATOM     56  O   LEU A   3     -21.667  15.405 -21.965  0.00  0.00    -0.273 OA
ATOM     57  N   ARG A   4     -22.963  16.505 -23.435  0.00  0.00    -0.297 N 
ATOM     58  H   ARG A   4     -23.618  16.443 -24.241  0.00  0.00    +0.150 HD
BRANCH  55  59
ATOM     59  CA  LEU A   3     -22.918  14.075 -23.502  0.00  0.00    +0.149 C 
BRANCH  59  62
ATOM     60  C   LEU A   2     -25.228  14.161 -22.824  0.00  0.00    +0.241 C 
ATOM     61  O   LEU A   2     -24.900  14.284 -21.661  0.00  0.00    -0.273 OA
ATOM     62  N   LEU A   3     -24.336  14.011 -23.805  0.00  0.00    -0.297 N 
ATOM     63  H   LEU A   3     -24.655  13.849 -24.781  0.00  0.00    +0.150 HD
BRANCH  60  64
ATOM     64  CA  LEU A   2     -26.689  14.270 -23.235  0.00  0.00    +0.149 C 
BRANCH  64  67
ATOM     65  C   MET A   1     -26.482  16.375 -24.385  0.00  0.00    +0.238 C 
ATOM     66  O   MET A   1     -26.012  16.880 -23.373  0.00  0.00    -0.274 OA
ATOM     67  N   LEU A   2     -26.854  15.117 -24.423  0.00  0.00    -0.297 N 
ATOM     68  H   LEU A   2     -27.265  14.721 -25.293  0.00  0.00    +0.150 HD
BRANCH  65  69
ATOM     69  CA  MET A   1     -26.640  17.196 -25.682  0.00  0.00    +0.146 C 
BRANCH  69  70
ATOM     70  N   MET A   1     -26.237  16.438 -26.881  0.00  0.00    -0.238 NA
ATOM     71  H   MET A   1     -26.937  16.228 -27.621  0.00  0.00    +0.142 HD
ENDBRANCH  69  70
BRANCH  69  72
ATOM     72  CB  MET A   1     -28.060  17.687 -25.806  0.00  0.00    +0.038 C 
BRANCH  72  73
ATOM     73  CG  MET A   1     -28.512  18.580 -24.655  0.00  0.00    +0.060 C 
BRANCH  73  74
ATOM     74  SD  MET A   1     -27.481  20.050 -24.332  0.00  0.00    -0.139 S 
ATOM     75  CE  MET A   1     -28.344  21.328 -25.233  0.00  0.00    +0.069 C 
ENDBRANCH  73  74
ENDBRANCH  72  73
ENDBRANCH  69  72
ENDBRANCH  65  69
ENDBRANCH  64  67
BRANCH  64  76
ATOM     76  CB  LEU A   2     -27.240  12.889 -23.464  0.00  0.00    +0.029 C 
BRANCH  76  77
ATOM     77  CG  LEU A   2     -28.738  12.798 -23.294  0.00  0.00    +0.002 C 
ATOM     78  CD2 LEU A   2     -29.145  13.069 -21.835  0.00  0.00    +0.000 C 
ATOM     79  CD1 LEU A   2     -29.151  11.425 -23.726  0.00  0.00    +0.000 C 
ENDBRANCH  76  77
ENDBRANCH  64  76
ENDBRANCH  60  64
ENDBRANCH  59  62
BRANCH  59  80
ATOM     80  CB  LEU A   3     -22.095  13.807 -24.746  0.00  0.00    +0.029 C 
BRANCH  80  81
ATOM     81  CG  LEU A   3     -20.584  13.748 -24.523  0.00  0.00    +0.002 C 
ATOM     82  CD2 LEU A   3     -20.179  12.679 -23.525  0.00  0.00    +0.000 C 
ATOM     83  CD1 LEU A   3     -19.917  13.435 -25.871  0.00  0.00    +0.000 C 
ENDBRANCH  80  81
ENDBRANCH  59  80
ENDBRANCH  55  59
ENDBRANCH  54  57
BRANCH  54  84
ATOM     84  CB  ARG A   4     -23.219  18.944 -23.740  0.00  0.00    +0.033 C 
BRANCH  84  85
ATOM     85  CG  ARG A   4     -22.314  19.511 -24.837  0.00  0.00    +0.045 C 
BRANCH  85  86
ATOM     86  CD  ARG A   4     -22.989  20.626 -25.652  0.00  0.00    +0.174 C 
BRANCH  86  87
ATOM     87  NE  ARG A   4     -23.437  20.129 -26.956  0.00  0.00    -0.265 N 
ATOM     88  CZ  ARG A   4     -24.704  20.015 -27.360  0.00  0.00    +0.342 C 
ATOM     89  NH2 ARG A   4     -25.710  20.409 -26.590  0.00  0.00    -0.292 N 
ATOM     90 HH21 ARG A   4     -25.519  20.816 -25.652  0.00  0.00    +0.255 HD
ATOM     91 HH22 ARG A   4     -26.690  20.311 -26.924  0.00  0.00    +0.255 HD
ATOM     92  NH1 ARG A   4     -24.976  19.519 -28.561  0.00  0.00    -0.292 N 
ATOM     93 HH11 ARG A   4     -25.963  19.430 -28.876  0.00  0.00    +0.255 HD
ATOM     94 HH12 ARG A   4     -24.202  19.219 -29.187  0.00  0.00    +0.255 HD
ATOM     95  HE  ARG A   4     -22.699  19.838 -27.629  0.00  0.00    +0.259 HD
ENDBRANCH  86  87
ENDBRANCH  85  86
ENDBRANCH  84  85
ENDBRANCH  54  84
ENDBRANCH  50  54
ENDBRANCH   1  52
BRANCH   1  96
ATOM     96  CB  LEU A   5     -26.213  17.055 -19.823  0.00  0.00    +0.029 C 
BRANCH  96  97
ATOM     97  CG  LEU A   5     -27.259  17.928 -20.544  0.00  0.00    +0.002 C 
ATOM     98  CD2 LEU A   5     -27.527  19.216 -19.822  0.00  0.00    +0.000 C 
ATOM     99  CD1 LEU A   5     -28.561  17.153 -20.700  0.00  0.00    +0.000 C 
ENDBRANCH  96  97
ENDBRANCH   1  96
TORSDOF 43
REMARK  Name = ../refined-set-2016/4v24/4v24_pocket.pdb
REMARK  307 active torsions:
REMARK  status: ('A' for Active; 'I' for Inactive)
REMARK    1  A    between atoms: _1  and  _3
REMARK    2  A    between atoms: _3  and  _4
REMARK    3  A    between atoms: _6  and  _8
REMARK    4  A    between atoms: _8  and  _9
REMARK    5  A    between atoms: _8  and  _11
REMARK    6  A    between atoms: _11  and  _12
REMARK    7  A    between atoms: _15  and  _17
REMARK    8  A    between atoms: _17  and  _18
REMARK    9  A    between atoms: _20  and  _22
REMARK   10  A    between atoms: _22  and  _23
REMARK   11  A    between atoms: _25  and  _27
REMARK   12  A    between atoms: _27  and  _28
REMARK   13  A    between atoms: _27  and  _30
REMARK   14  A    between atoms: _30  and  _31
REMARK   15  A    between atoms: _36  and  _38
REMARK   16  A    between atoms: _38  and  _39
REMARK   17  A    between atoms: _42  and  _44
REMARK   18  A    between atoms: _44  and  _45
REMARK   19  A    between atoms: _44  and  _47
REMARK   20  A    between atoms: _47  and  _48
REMARK   21  A    between atoms: _51  and  _53
REMARK   22  A    between atoms: _53  and  _54
REMARK   23  A    between atoms: _53  and  _56
REMARK   24  A    between atoms: _56  and  _57
REMARK   25  A    between atoms: _60  and  _62
REMARK   26  A    between atoms: _62  and  _63
REMARK   27  A    between atoms: _62  and  _65
REMARK   28  A    between atoms: _65  and  _66
REMARK   29  A    between atoms: _68  and  _70
REMARK   30  A    between atoms: _70  and  _71
REMARK   31  A    between atoms: _70  and  _73
REMARK   32  A    between atoms: _73  and  _74
REMARK   33  A    between atoms: _77  and  _79
REMARK   34  A    between atoms: _79  and  _80
REMARK   35  A    between atoms: _83  and  _85
REMARK   36  A    between atoms: _85  and  _86
REMARK   37  A    between atoms: _85  and  _88
REMARK   38  A    between atoms: _88  and  _89
REMARK   39  A    between atoms: _99  and  _101
REMARK   40  A    between atoms: _101  and  _102
REMARK   41  A    between atoms: _101  and  _104
REMARK   42  A    between atoms: _104  and  _105
REMARK   43  A    between atoms: _111  and  _113
REMARK   44  A    between atoms: _113  and  _114
REMARK   45  A    between atoms: _113  and  _116
REMARK   46  A    between atoms: _116  and  _117
REMARK   47  A    between atoms: _120  and  _122
REMARK   48  A    between atoms: _122  and  _123
REMARK   49  A    between atoms: _126  and  _128
REMARK   50  A    between atoms: _128  and  _129
REMARK   51  A    between atoms: _128  and  _131
REMARK   52  A    between atoms: _131  and  _132
REMARK   53  A    between atoms: _135  and  _137
REMARK   54  A    between atoms: _137  and  _138
REMARK   55  A    between atoms: _137  and  _140
REMARK   56  A    between atoms: _143  and  _145
REMARK   57  A    between atoms: _145  and  _146
REMARK   58  A    between atoms: _145  and  _148
REMARK   59  A    between atoms: _148  and  _149
REMARK   60  A    between atoms: _152  and  _154
REMARK   61  A    between atoms: _154  and  _155
REMARK   62  A    between atoms: _154  and  _157
REMARK   63  A    between atoms: _157  and  _158
REMARK   64  A    between atoms: _161  and  _163
REMARK   65  A    between atoms: _163  and  _164
REMARK   66  A    between atoms: _163  and  _166
REMARK   67  A    between atoms: _166  and  _167
REMARK   68  A    between atoms: _169  and  _171
REMARK   69  A    between atoms: _171  and  _172
REMARK   70  A    between atoms: _171  and  _174
REMARK   71  A    between atoms: _174  and  _175
REMARK   72  A    between atoms: _175  and  _176
REMARK   73  A    between atoms: _179  and  _181
REMARK   74  A    between atoms: _181  and  _182
REMARK   75  A    between atoms: _181  and  _184
REMARK   76  A    between atoms: _184  and  _185
REMARK   77  A    between atoms: _185  and  _186
REMARK   78  A    between atoms: _186  and  _187
REMARK   79  A    between atoms: _196  and  _198
REMARK   80  A    between atoms: _198  and  _199
REMARK   81  A    between atoms: _198  and  _201
REMARK   82  A    between atoms: _201  and  _202
REMARK   83  A    between atoms: _208  and  _210
REMARK   84  A    between atoms: _210  and  _211
REMARK   85  A    between atoms: _210  and  _213
REMARK   86  A    between atoms: _213  and  _214
REMARK   87  A    between atoms: _217  and  _219
REMARK   88  A    between atoms: _219  and  _220
REMARK   89  A    between atoms: _222  and  _224
REMARK   90  A    between atoms: _224  and  _225
REMARK   91  A    between atoms: _224  and  _227
REMARK   92  A    between atoms: _227  and  _228
REMARK   93  A    between atoms: _231  and  _233
REMARK   94  A    between atoms: _233  and  _234
REMARK   95  A    between atoms: _233  and  _236
REMARK   96  A    between atoms: _236  and  _237
REMARK   97  A    between atoms: _243  and  _245
REMARK   98  A    between atoms: _245  and  _246
REMARK   99  A    between atoms: _245  and  _248
REMARK  100  A    between atoms: _248  and  _249
REMARK  101  A    between atoms: _249  and  _250
REMARK  102  A    between atoms: _250  and  _251
REMARK  103  A    between atoms: _260  and  _262
REMARK  104  A    between atoms: _262  and  _263
REMARK  105  A    between atoms: _262  and  _265
REMARK  106  A    between atoms: _265  and  _266
REMARK  107  A    between atoms: _269  and  _271
REMARK  108  A    between atoms: _271  and  _272
REMARK  109  A    between atoms: _271  and  _274
REMARK  110  A    between atoms: _274  and  _275
REMARK  111  A    between atoms: _278  and  _280
REMARK  112  A    between atoms: _280  and  _281
REMARK  113  A    between atoms: _280  and  _283
REMARK  114  A    between atoms: _286  and  _288
REMARK  115  A    between atoms: _288  and  _289
REMARK  116  A    between atoms: _288  and  _291
REMARK  117  A    between atoms: _291  and  _292
REMARK  118  A    between atoms: _295  and  _297
REMARK  119  A    between atoms: _297  and  _298
REMARK  120  A    between atoms: _297  and  _300
REMARK  121  A    between atoms: _303  and  _305
REMARK  122  A    between atoms: _305  and  _306
REMARK  123  A    between atoms: _305  and  _308
REMARK  124  A    between atoms: _308  and  _309
REMARK  125  A    between atoms: _312  and  _314
REMARK  126  A    between atoms: _314  and  _315
REMARK  127  A    between atoms: _318  and  _320
REMARK  128  A    between atoms: _320  and  _321
REMARK  129  A    between atoms: _320  and  _323
REMARK  130  A    between atoms: _323  and  _324
REMARK  131  A    between atoms: _327  and  _329
REMARK  132  A    between atoms: _329  and  _330
REMARK  133  A    between atoms: _329  and  _332
REMARK  134  A    between atoms: _332  and  _333
REMARK  135  A    between atoms: _335  and  _337
REMARK  136  A    between atoms: _337  and  _338
REMARK  137  A    between atoms: _337  and  _340
REMARK  138  A    between atoms: _340  and  _341
REMARK  139  A    between atoms: _346  and  _348
REMARK  140  A    between atoms: _348  and  _349
REMARK  141  A    between atoms: _348  and  _351
REMARK  142  A    between atoms: _351  and  _352
REMARK  143  A    between atoms: _355  and  _357
REMARK  144  A    between atoms: _357  and  _358
REMARK  145  A    between atoms: _360  and  _362
REMARK  146  A    between atoms: _362  and  _363
REMARK  147  A    between atoms: _362  and  _365
REMARK  148  A    between atoms: _365  and  _366
REMARK  149  A    between atoms: _368  and  _370
REMARK  150  A    between atoms: _370  and  _371
REMARK  151  A    between atoms: _370  and  _373
REMARK  152  A    between atoms: _373  and  _374
REMARK  153  A    between atoms: _374  and  _375
REMARK  154  A    between atoms: _377  and  _379
REMARK  155  A    between atoms: _379  and  _380
REMARK  156  A    between atoms: _379  and  _382
REMARK  157  A    between atoms: _382  and  _383
REMARK  158  A    between atoms: _389  and  _391
REMARK  159  A    between atoms: _391  and  _392
REMARK  160  A    between atoms: _395  and  _397
REMARK  161  A    between atoms: _397  and  _398
REMARK  162  A    between atoms: _402  and  _403
REMARK  163  A    between atoms: _408  and  _410
REMARK  164  A    between atoms: _410  and  _411
REMARK  165  A    between atoms: _410  and  _413
REMARK  166  A    between atoms: _413  and  _414
REMARK  167  A    between atoms: _414  and  _415
REMARK  168  A    between atoms: _417  and  _419
REMARK  169  A    between atoms: _419  and  _420
REMARK  170  A    between atoms: _419  and  _422
REMARK  171  A    between atoms: _422  and  _423
REMARK  172  A    between atoms: _428  and  _430
REMARK  173  A    between atoms: _430  and  _431
REMARK  174  A    between atoms: _430  and  _433
REMARK  175  A    between atoms: _433  and  _434
REMARK  176  A    between atoms: _437  and  _439
REMARK  177  A    between atoms: _439  and  _440
REMARK  178  A    between atoms: _439  and  _442
REMARK  179  A    between atoms: _442  and  _443
REMARK  180  A    between atoms: _449  and  _451
REMARK  181  A    between atoms: _451  and  _452
REMARK  182  A    between atoms: _451  and  _454
REMARK  183  A    between atoms: _454  and  _455
REMARK  184  A    between atoms: _460  and  _461
REMARK  185  A    between atoms: _463  and  _465
REMARK  186  A    between atoms: _465  and  _466
REMARK  187  A    between atoms: _465  and  _468
REMARK  188  A    between atoms: _471  and  _473
REMARK  189  A    between atoms: _473  and  _474
REMARK  190  A    between atoms: _473  and  _476
REMARK  191  A    between atoms: _479  and  _481
REMARK  192  A    between atoms: _481  and  _482
REMARK  193  A    between atoms: _481  and  _484
REMARK  194  A    between atoms: _484  and  _485
REMARK  195  A    between atoms: _487  and  _489
REMARK  196  A    between atoms: _489  and  _490
REMARK  197  A    between atoms: _489  and  _492
REMARK  198  A    between atoms: _492  and  _493
REMARK  199  A    between atoms: _493  and  _494
REMARK  200  A    between atoms: _494  and  _495
REMARK  201  A    between atoms: _504  and  _506
REMARK  202  A    between atoms: _506  and  _507
REMARK  203  A    between atoms: _506  and  _509
REMARK  204  A    between atoms: _509  and  _510
REMARK  205  A    between atoms: _510  and  _511
REMARK  206  A    between atoms: _513  and  _515
REMARK  207  A    between atoms: _515  and  _516
REMARK  208  A    between atoms: _515  and  _518
REMARK  209  A    between atoms: _518  and  _519
REMARK  210  A    between atoms: _522  and  _524
REMARK  211  A    between atoms: _524  and  _525
REMARK  212  A    between atoms: _524  and  _527
REMARK  213  A    between atoms: _527  and  _528
REMARK  214  A    between atoms: _531  and  _533
REMARK  215  A    between atoms: _533  and  _534
REMARK  216  A    between atoms: _533  and  _536
REMARK  217  A    between atoms: _536  and  _537
REMARK  218  A    between atoms: _537  and  _538
REMARK  219  A    between atoms: _538  and  _539
REMARK  220  A    between atoms: _548  and  _550
REMARK  221  A    between atoms: _550  and  _551
REMARK  222  A    between atoms: _550  and  _553
REMARK  223  A    between atoms: _553  and  _554
REMARK  224  A    between atoms: _557  and  _559
REMARK  225  A    between atoms: _559  and  _560
REMARK  226  A    between atoms: _559  and  _562
REMARK  227  A    between atoms: _562  and  _563
REMARK  228  A    between atoms: _569  and  _571
REMARK  229  A    between atoms: _571  and  _572
REMARK  230  A    between atoms: _571  and  _574
REMARK  231  A    between atoms: _574  and  _575
REMARK  232  A    between atoms: _578  and  _580
REMARK  233  A    between atoms: _580  and  _581
REMARK  234  A    between atoms: _584  and  _586
REMARK  235  A    between atoms: _586  and  _587
REMARK  236  A    between atoms: _586  and  _589
REMARK  237  A    between atoms: _589  and  _590
REMARK  238  A    between atoms: _590  and  _591
REMARK  239  A    between atoms: _593  and  _595
REMARK  240  A    between atoms: _595  and  _596
REMARK  241  A    between atoms: _595  and  _598
REMARK  242  A    between atoms: _598  and  _599
REMARK  243  A    between atoms: _599  and  _600
REMARK  244  A    between atoms: _603  and  _605
REMARK  245  A    between atoms: _605  and  _606
REMARK  246  A    between atoms: _605  and  _608
REMARK  247  A    between atoms: _608  and  _609
REMARK  248  A    between atoms: _609  and  _610
REMARK  249  A    between atoms: _610  and  _611
REMARK  250  A    between atoms: _620  and  _622
REMARK  251  A    between atoms: _622  and  _623
REMARK  252  A    between atoms: _622  and  _625
REMARK  253  A    between atoms: _625  and  _626
REMARK  254  A    between atoms: _631  and  _633
REMARK  255  A    between atoms: _633  and  _634
REMARK  256  A    between atoms: _633  and  _636
REMARK  257  A    between atoms: _636  and  _637
REMARK  258  A    between atoms: _637  and  _638
REMARK  259  A    between atoms: _640  and  _642
REMARK  260  A    between atoms: _642  and  _643
REMARK  261  A    between atoms: _642  and  _645
REMARK  262  A    between atoms: _645  and  _646
REMARK  263  A    between atoms: _651  and  _652
REMARK  264  A    between atoms: _654  and  _656
REMARK  265  A    between atoms: _656  and  _657
REMARK  266  A    between atoms: _656  and  _659
REMARK  267  A    between atoms: _661  and  _663
REMARK  268  A    between atoms: _663  and  _664
REMARK  269  A    between atoms: _663  and  _666
REMARK  270  A    between atoms: _666  and  _667
REMARK  271  A    between atoms: _672  and  _673
REMARK  272  A    between atoms: _675  and  _677
REMARK  273  A    between atoms: _677  and  _678
REMARK  274  A    between atoms: _677  and  _680
REMARK  275  A    between atoms: _680  and  _681
REMARK  276  A    between atoms: _684  and  _686
REMARK  277  A    between atoms: _686  and  _687
REMARK  278  A    between atoms: _686  and  _689
REMARK  279  A    between atoms: _692  and  _694
REMARK  280  A    between atoms: _694  and  _695
REMARK  281  A    between atoms: _694  and  _697
REMARK  282  A    between atoms: _697  and  _698
REMARK  283  A    between atoms: _703  and  _704
REMARK  284  A    between atoms: _706  and  _708
REMARK  285  A    between atoms: _708  and  _709
REMARK  286  A    between atoms: _708  and  _711
REMARK  287  A    between atoms: _711  and  _712
REMARK  288  A    between atoms: _718  and  _720
REMARK  289  A    between atoms: _720  and  _721
REMARK  290  A    between atoms: _724  and  _726
REMARK  291  A    between atoms: _726  and  _727
REMARK  292  A    between atoms: _726  and  _729
REMARK  293  A    between atoms: _732  and  _734
REMARK  294  A    between atoms: _734  and  _735
REMARK  295  A    between atoms: _734  and  _737
REMARK  296  A    between atoms: _737  and  _738
REMARK  297  A    between atoms: _741  and  _743
REMARK  298  A    between atoms: _743  and  _744
REMARK  299  A    between atoms: _746  and  _748
REMARK  300  A    between atoms: _748  and  _749
REMARK  301  A    between atoms: _748  and  _751
REMARK  302  A    between atoms: _751  and  _752
REMARK  303  A    between atoms: _752  and  _753
REMARK  304  A    between atoms: _756  and  _758
REMARK  305  A    between atoms: _758  and  _759
REMARK  306  A    between atoms: _758  and  _761
REMARK  307  A    between atoms: _761  and  _762
REMARK                            x       y       z     vdW  Elec       q    Type
REMARK                         _______ _______ _______ _____ _____    ______ ____
ROOT
ATOM      1  C   ARG A   1     -23.782  22.810 -15.495  0.00  0.00    +0.238 C 
ATOM      2  N   HIS A   2     -24.225  21.548 -15.435  0.00  0.00    -0.297 N 
ATOM      3  H   HIS A   2     -23.860  20.917 -14.693  0.00  0.00    +0.150 HD
ATOM      4  O   ARG A   1     -24.203  23.634 -16.315  0.00  0.00    -0.274 OA
ENDROOT
BRANCH   1   5
ATOM      5  CA  ARG A   1     -22.749  23.222 -14.469  0.00  0.00    +0.145 C 
BRANCH   5   6
ATOM      6  N   ARG A   1     -22.346  22.142 -13.556  0.00  0.00    -0.238 NA
ATOM      7  H   ARG A   1     -21.731  21.386 -13.918  0.00  0.00    +0.142 HD
ENDBRANCH   5   6
BRANCH   5   8
ATOM      8  CB  ARG A   1     -21.511  23.809 -15.168  0.00  0.00    +0.030 C 
BRANCH   8   9
ATOM      9  CG  ARG A   1     -20.493  24.356 -14.178  0.00  0.00    +0.045 C 
BRANCH   9  10
ATOM     10  CD  ARG A   1     -19.380  25.124 -14.874  0.00  0.00    +0.174 C 
BRANCH  10  11
ATOM     11  NE  ARG A   1     -19.894  26.370 -15.424  0.00  0.00    -0.265 N 
ATOM     12  HE  ARG A   1     -20.860  26.649 -15.157  0.00  0.00    +0.259 HD
ATOM     13  CZ  ARG A   1     -19.225  27.179 -16.241  0.00  0.00    +0.342 C 
ATOM     14  NH2 ARG A   1     -17.980  26.886 -16.623  0.00  0.00    -0.292 N 
ATOM     15 HH21 ARG A   1     -17.522  26.017 -16.281  0.00  0.00    +0.255 HD
ATOM     16 HH22 ARG A   1     -17.468  27.527 -17.262  0.00  0.00    +0.255 HD
ATOM     17  NH1 ARG A   1     -19.811  28.289 -16.678  0.00  0.00    -0.292 N 
ATOM     18 HH11 ARG A   1     -20.781  28.516 -16.381  0.00  0.00    +0.255 HD
ATOM     19 HH12 ARG A   1     -19.299  28.930 -17.317  0.00  0.00    +0.255 HD
ENDBRANCH  10  11
ENDBRANCH   9  10
ENDBRANCH   8   9
ENDBRANCH   5   8
ENDBRANCH   1   5
BRANCH   2  20
ATOM     20  CA  HIS A   2     -25.196  21.041 -16.373  0.00  0.00    +0.155 C 
BRANCH  20  21
ATOM     21  C   HIS A   2     -26.539  21.787 -16.415  0.00  0.00    +0.241 C 
ATOM     22  N   MET A   3     -26.990  22.370 -15.310  0.00  0.00    -0.298 N 
ATOM     23  H   MET A   3     -26.439  22.314 -14.430  0.00  0.00    +0.150 HD
ATOM     24  O   HIS A   2     -27.194  21.780 -17.459  0.00  0.00    -0.273 OA
BRANCH  22  25
ATOM     25  CA  MET A   3     -28.277  23.099 -15.334  0.00  0.00    +0.138 C 
BRANCH  25  26
ATOM     26  C   MET A   3     -28.188  24.431 -16.108  0.00  0.00    +0.227 C 
ATOM     27  O   MET A   3     -29.218  24.979 -16.520  0.00  0.00    -0.286 OA
ENDBRANCH  25  26
BRANCH  25  28
ATOM     28  CB  MET A   3     -28.803  23.402 -13.919  0.00  0.00    +0.039 C 
BRANCH  28  29
ATOM     29  CG  MET A   3     -28.932  22.202 -12.982  0.00  0.00    +0.060 C 
BRANCH  29  30
ATOM     30  SD  MET A   3     -29.843  20.864 -13.724  0.00  0.00    -0.139 S 
ATOM     31  CE  MET A   3     -31.523  21.504 -13.687  0.00  0.00    +0.069 C 
ENDBRANCH  29  30
ENDBRANCH  28  29
ENDBRANCH  25  28
ENDBRANCH  22  25
ENDBRANCH  20  21
BRANCH  20  32
ATOM     32  CB  HIS A   2     -25.442  19.529 -16.154  0.00  0.00    +0.076 C 
BRANCH  32  33
ATOM     33  CG  HIS A   2     -25.816  19.181 -14.747  0.00  0.00    +0.082 A 
ATOM     34  ND1 HIS A   2     -24.923  19.278 -13.693  0.00  0.00    -0.227 NA
ATOM     35  CE1 HIS A   2     -25.533  18.936 -12.573  0.00  0.00    +0.199 A 
ATOM     36  NE2 HIS A   2     -26.783  18.626 -12.862  0.00  0.00    -0.221 NA
ATOM     37  CD2 HIS A   2     -26.982  18.760 -14.214  0.00  0.00    +0.115 A 
ENDBRANCH  32  33
ENDBRANCH  20  32
ENDBRANCH   2  20
TORSDOF 15
REMARK  Name = ../refined-set-2016/4v24/4v24_pocket.pdb
REMARK  307 active torsions:
REMARK  status: ('A' for Active; 'I' for Inactive)
REMARK    1  A    between atoms: _1  and  _3
REMARK    2  A    between atoms: _3  and  _4
REMARK    3  A    between atoms: _6  and  _8
REMARK    4  A    between atoms: _8  and  _9
REMARK    5  A    between atoms: _8  and  _11
REMARK    6  A    between atoms: _11  and  _12
REMARK    7  A    between atoms: _15  and  _17
REMARK    8  A    between atoms: _17  and  _18
REMARK    9  A    between atoms: _20  and  _22
REMARK   10  A    between atoms: _22  and  _23
REMARK   11  A    between atoms: _25  and  _27
REMARK   12  A    between atoms: _27  and  _28
REMARK   13  A    between atoms: _27  and  _30
REMARK   14  A    between atoms: _30  and  _31
REMARK   15  A    between atoms: _36  and  _38
REMARK   16  A    between atoms: _38  and  _39
REMARK   17  A    between atoms: _42  and  _44
REMARK   18  A    between atoms: _44  and  _45
REMARK   19  A    between atoms: _44  and  _47
REMARK   20  A    between atoms: _47  and  _48
REMARK   21  A    between atoms: _51  and  _53
REMARK   22  A    between atoms: _53  and  _54
REMARK   23  A    between atoms: _53  and  _56
REMARK   24  A    between atoms: _56  and  _57
REMARK   25  A    between atoms: _60  and  _62
REMARK   26  A    between atoms: _62  and  _63
REMARK   27  A    between atoms: _62  and  _65
REMARK   28  A    between atoms: _65  and  _66
REMARK   29  A    between atoms: _68  and  _70
REMARK   30  A    between atoms: _70  and  _71
REMARK   31  A    between atoms: _70  and  _73
REMARK   32  A    between atoms: _73  and  _74
REMARK   33  A    between atoms: _77  and  _79
REMARK   34  A    between atoms: _79  and  _80
REMARK   35  A    between atoms: _83  and  _85
REMARK   36  A    between atoms: _85  and  _86
REMARK   37  A    between atoms: _85  and  _88
REMARK   38  A    between atoms: _88  and  _89
REMARK   39  A    between atoms: _99  and  _101
REMARK   40  A    between atoms: _101  and  _102
REMARK   41  A    between atoms: _101  and  _104
REMARK   42  A    between atoms: _104  and  _105
REMARK   43  A    between atoms: _111  and  _113
REMARK   44  A    between atoms: _113  and  _114
REMARK   45  A    between atoms: _113  and  _116
REMARK   46  A    between atoms: _116  and  _117
REMARK   47  A    between atoms: _120  and  _122
REMARK   48  A    between atoms: _122  and  _123
REMARK   49  A    between atoms: _126  and  _128
REMARK   50  A    between atoms: _128  and  _129
REMARK   51  A    between atoms: _128  and  _131
REMARK   52  A    between atoms: _131  and  _132
REMARK   53  A    between atoms: _135  and  _137
REMARK   54  A    between atoms: _137  and  _138
REMARK   55  A    between atoms: _137  and  _140
REMARK   56  A    between atoms: _143  and  _145
REMARK   57  A    between atoms: _145  and  _146
REMARK   58  A    between atoms: _145  and  _148
REMARK   59  A    between atoms: _148  and  _149
REMARK   60  A    between atoms: _152  and  _154
REMARK   61  A    between atoms: _154  and  _155
REMARK   62  A    between atoms: _154  and  _157
REMARK   63  A    between atoms: _157  and  _158
REMARK   64  A    between atoms: _161  and  _163
REMARK   65  A    between atoms: _163  and  _164
REMARK   66  A    between atoms: _163  and  _166
REMARK   67  A    between atoms: _166  and  _167
REMARK   68  A    between atoms: _169  and  _171
REMARK   69  A    between atoms: _171  and  _172
REMARK   70  A    between atoms: _171  and  _174
REMARK   71  A    between atoms: _174  and  _175
REMARK   72  A    between atoms: _175  and  _176
REMARK   73  A    between atoms: _179  and  _181
REMARK   74  A    between atoms: _181  and  _182
REMARK   75  A    between atoms: _181  and  _184
REMARK   76  A    between atoms: _184  and  _185
REMARK   77  A    between atoms: _185  and  _186
REMARK   78  A    between atoms: _186  and  _187
REMARK   79  A    between atoms: _196  and  _198
REMARK   80  A    between atoms: _198  and  _199
REMARK   81  A    between atoms: _198  and  _201
REMARK   82  A    between atoms: _201  and  _202
REMARK   83  A    between atoms: _208  and  _210
REMARK   84  A    between atoms: _210  and  _211
REMARK   85  A    between atoms: _210  and  _213
REMARK   86  A    between atoms: _213  and  _214
REMARK   87  A    between atoms: _217  and  _219
REMARK   88  A    between atoms: _219  and  _220
REMARK   89  A    between atoms: _222  and  _224
REMARK   90  A    between atoms: _224  and  _225
REMARK   91  A    between atoms: _224  and  _227
REMARK   92  A    between atoms: _227  and  _228
REMARK   93  A    between atoms: _231  and  _233
REMARK   94  A    between atoms: _233  and  _234
REMARK   95  A    between atoms: _233  and  _236
REMARK   96  A    between atoms: _236  and  _237
REMARK   97  A    between atoms: _243  and  _245
REMARK   98  A    between atoms: _245  and  _246
REMARK   99  A    between atoms: _245  and  _248
REMARK  100  A    between atoms: _248  and  _249
REMARK  101  A    between atoms: _249  and  _250
REMARK  102  A    between atoms: _250  and  _251
REMARK  103  A    between atoms: _260  and  _262
REMARK  104  A    between atoms: _262  and  _263
REMARK  105  A    between atoms: _262  and  _265
REMARK  106  A    between atoms: _265  and  _266
REMARK  107  A    between atoms: _269  and  _271
REMARK  108  A    between atoms: _271  and  _272
REMARK  109  A    between atoms: _271  and  _274
REMARK  110  A    between atoms: _274  and  _275
REMARK  111  A    between atoms: _278  and  _280
REMARK  112  A    between atoms: _280  and  _281
REMARK  113  A    between atoms: _280  and  _283
REMARK  114  A    between atoms: _286  and  _288
REMARK  115  A    between atoms: _288  and  _289
REMARK  116  A    between atoms: _288  and  _291
REMARK  117  A    between atoms: _291  and  _292
REMARK  118  A    between atoms: _295  and  _297
REMARK  119  A    between atoms: _297  and  _298
REMARK  120  A    between atoms: _297  and  _300
REMARK  121  A    between atoms: _303  and  _305
REMARK  122  A    between atoms: _305  and  _306
REMARK  123  A    between atoms: _305  and  _308
REMARK  124  A    between atoms: _308  and  _309
REMARK  125  A    between atoms: _312  and  _314
REMARK  126  A    between atoms: _314  and  _315
REMARK  127  A    between atoms: _318  and  _320
REMARK  128  A    between atoms: _320  and  _321
REMARK  129  A    between atoms: _320  and  _323
REMARK  130  A    between atoms: _323  and  _324
REMARK  131  A    between atoms: _327  and  _329
REMARK  132  A    between atoms: _329  and  _330
REMARK  133  A    between atoms: _329  and  _332
REMARK  134  A    between atoms: _332  and  _333
REMARK  135  A    between atoms: _335  and  _337
REMARK  136  A    between atoms: _337  and  _338
REMARK  137  A    between atoms: _337  and  _340
REMARK  138  A    between atoms: _340  and  _341
REMARK  139  A    between atoms: _346  and  _348
REMARK  140  A    between atoms: _348  and  _349
REMARK  141  A    between atoms: _348  and  _351
REMARK  142  A    between atoms: _351  and  _352
REMARK  143  A    between atoms: _355  and  _357
REMARK  144  A    between atoms: _357  and  _358
REMARK  145  A    between atoms: _360  and  _362
REMARK  146  A    between atoms: _362  and  _363
REMARK  147  A    between atoms: _362  and  _365
REMARK  148  A    between atoms: _365  and  _366
REMARK  149  A    between atoms: _368  and  _370
REMARK  150  A    between atoms: _370  and  _371
REMARK  151  A    between atoms: _370  and  _373
REMARK  152  A    between atoms: _373  and  _374
REMARK  153  A    between atoms: _374  and  _375
REMARK  154  A    between atoms: _377  and  _379
REMARK  155  A    between atoms: _379  and  _380
REMARK  156  A    between atoms: _379  and  _382
REMARK  157  A    between atoms: _382  and  _383
REMARK  158  A    between atoms: _389  and  _391
REMARK  159  A    between atoms: _391  and  _392
REMARK  160  A    between atoms: _395  and  _397
REMARK  161  A    between atoms: _397  and  _398
REMARK  162  A    between atoms: _402  and  _403
REMARK  163  A    between atoms: _408  and  _410
REMARK  164  A    between atoms: _410  and  _411
REMARK  165  A    between atoms: _410  and  _413
REMARK  166  A    between atoms: _413  and  _414
REMARK  167  A    between atoms: _414  and  _415
REMARK  168  A    between atoms: _417  and  _419
REMARK  169  A    between atoms: _419  and  _420
REMARK  170  A    between atoms: _419  and  _422
REMARK  171  A    between atoms: _422  and  _423
REMARK  172  A    between atoms: _428  and  _430
REMARK  173  A    between atoms: _430  and  _431
REMARK  174  A    between atoms: _430  and  _433
REMARK  175  A    between atoms: _433  and  _434
REMARK  176  A    between atoms: _437  and  _439
REMARK  177  A    between atoms: _439  and  _440
REMARK  178  A    between atoms: _439  and  _442
REMARK  179  A    between atoms: _442  and  _443
REMARK  180  A    between atoms: _449  and  _451
REMARK  181  A    between atoms: _451  and  _452
REMARK  182  A    between atoms: _451  and  _454
REMARK  183  A    between atoms: _454  and  _455
REMARK  184  A    between atoms: _460  and  _461
REMARK  185  A    between atoms: _463  and  _465
REMARK  186  A    between atoms: _465  and  _466
REMARK  187  A    between atoms: _465  and  _468
REMARK  188  A    between atoms: _471  and  _473
REMARK  189  A    between atoms: _473  and  _474
REMARK  190  A    between atoms: _473  and  _476
REMARK  191  A    between atoms: _479  and  _481
REMARK  192  A    between atoms: _481  and  _482
REMARK  193  A    between atoms: _481  and  _484
REMARK  194  A    between atoms: _484  and  _485
REMARK  195  A    between atoms: _487  and  _489
REMARK  196  A    between atoms: _489  and  _490
REMARK  197  A    between atoms: _489  and  _492
REMARK  198  A    between atoms: _492  and  _493
REMARK  199  A    between atoms: _493  and  _494
REMARK  200  A    between atoms: _494  and  _495
REMARK  201  A    between atoms: _504  and  _506
REMARK  202  A    between atoms: _506  and  _507
REMARK  203  A    between atoms: _506  and  _509
REMARK  204  A    between atoms: _509  and  _510
REMARK  205  A    between atoms: _510  and  _511
REMARK  206  A    between atoms: _513  and  _515
REMARK  207  A    between atoms: _515  and  _516
REMARK  208  A    between atoms: _515  and  _518
REMARK  209  A    between atoms: _518  and  _519
REMARK  210  A    between atoms: _522  and  _524
REMARK  211  A    between atoms: _524  and  _525
REMARK  212  A    between atoms: _524  and  _527
REMARK  213  A    between atoms: _527  and  _528
REMARK  214  A    between atoms: _531  and  _533
REMARK  215  A    between atoms: _533  and  _534
REMARK  216  A    between atoms: _533  and  _536
REMARK  217  A    between atoms: _536  and  _537
REMARK  218  A    between atoms: _537  and  _538
REMARK  219  A    between atoms: _538  and  _539
REMARK  220  A    between atoms: _548  and  _550
REMARK  221  A    between atoms: _550  and  _551
REMARK  222  A    between atoms: _550  and  _553
REMARK  223  A    between atoms: _553  and  _554
REMARK  224  A    between atoms: _557  and  _559
REMARK  225  A    between atoms: _559  and  _560
REMARK  226  A    between atoms: _559  and  _562
REMARK  227  A    between atoms: _562  and  _563
REMARK  228  A    between atoms: _569  and  _571
REMARK  229  A    between atoms: _571  and  _572
REMARK  230  A    between atoms: _571  and  _574
REMARK  231  A    between atoms: _574  and  _575
REMARK  232  A    between atoms: _578  and  _580
REMARK  233  A    between atoms: _580  and  _581
REMARK  234  A    between atoms: _584  and  _586
REMARK  235  A    between atoms: _586  and  _587
REMARK  236  A    between atoms: _586  and  _589
REMARK  237  A    between atoms: _589  and  _590
REMARK  238  A    between atoms: _590  and  _591
REMARK  239  A    between atoms: _593  and  _595
REMARK  240  A    between atoms: _595  and  _596
REMARK  241  A    between atoms: _595  and  _598
REMARK  242  A    between atoms: _598  and  _599
REMARK  243  A    between atoms: _599  and  _600
REMARK  244  A    between atoms: _603  and  _605
REMARK  245  A    between atoms: _605  and  _606
REMARK  246  A    between atoms: _605  and  _608
REMARK  247  A    between atoms: _608  and  _609
REMARK  248  A    between atoms: _609  and  _610
REMARK  249  A    between atoms: _610  and  _611
REMARK  250  A    between atoms: _620  and  _622
REMARK  251  A    between atoms: _622  and  _623
REMARK  252  A    between atoms: _622  and  _625
REMARK  253  A    between atoms: _625  and  _626
REMARK  254  A    between atoms: _631  and  _633
REMARK  255  A    between atoms: _633  and  _634
REMARK  256  A    between atoms: _633  and  _636
REMARK  257  A    between atoms: _636  and  _637
REMARK  258  A    between atoms: _637  and  _638
REMARK  259  A    between atoms: _640  and  _642
REMARK  260  A    between atoms: _642  and  _643
REMARK  261  A    between atoms: _642  and  _645
REMARK  262  A    between atoms: _645  and  _646
REMARK  263  A    between atoms: _651  and  _652
REMARK  264  A    between atoms: _654  and  _656
REMARK  265  A    between atoms: _656  and  _657
REMARK  266  A    between atoms: _656  and  _659
REMARK  267  A    between atoms: _661  and  _663
REMARK  268  A    between atoms: _663  and  _664
REMARK  269  A    between atoms: _663  and  _666
REMARK  270  A    between atoms: _666  and  _667
REMARK  271  A    between atoms: _672  and  _673
REMARK  272  A    between atoms: _675  and  _677
REMARK  273  A    between atoms: _677  and  _678
REMARK  274  A    between atoms: _677  and  _680
REMARK  275  A    between atoms: _680  and  _681
REMARK  276  A    between atoms: _684  and  _686
REMARK  277  A    between atoms: _686  and  _687
REMARK  278  A    between atoms: _686  and  _689
REMARK  279  A    between atoms: _692  and  _694
REMARK  280  A    between atoms: _694  and  _695
REMARK  281  A    between atoms: _694  and  _697
REMARK  282  A    between atoms: _697  and  _698
REMARK  283  A    between atoms: _703  and  _704
REMARK  284  A    between atoms: _706  and  _708
REMARK  285  A    between atoms: _708  and  _709
REMARK  286  A    between atoms: _708  and  _711
REMARK  287  A    between atoms: _711  and  _712
REMARK  288  A    between atoms: _718  and  _720
REMARK  289  A    between atoms: _720  and  _721
REMARK  290  A    between atoms: _724  and  _726
REMARK  291  A    between atoms: _726  and  _727
REMARK  292  A    between atoms: _726  and  _729
REMARK  293  A    between atoms: _732  and  _734
REMARK  294  A    between atoms: _734  and  _735
REMARK  295  A    between atoms: _734  and  _737
REMARK  296  A    between atoms: _737  and  _738
REMARK  297  A    between atoms: _741  and  _743
REMARK  298  A    between atoms: _743  and  _744
REMARK  299  A    between atoms: _746  and  _748
REMARK  300  A    between atoms: _748  and  _749
REMARK  301  A    between atoms: _748  and  _751
REMARK  302  A    between atoms: _751  and  _752
REMARK  303  A    between atoms: _752  and  _753
REMARK  304  A    between atoms: _756  and  _758
REMARK  305  A    between atoms: _758  and  _759
REMARK  306  A    between atoms: _758  and  _761
REMARK  307  A    between atoms: _761  and  _762
REMARK                            x       y       z     vdW  Elec       q    Type
REMARK                         _______ _______ _______ _____ _____    ______ ____
ROOT
ATOM      1  CG  TYR A   1     -25.765  23.029 -21.329  0.00  0.00    -0.020 A 
ATOM      2  CD2 TYR A   1     -24.921  22.221 -20.578  0.00  0.00    -0.001 A 
ATOM      3  CE2 TYR A   1     -23.608  21.989 -20.969  0.00  0.00    +0.036 A 
ATOM      4  CZ  TYR A   1     -23.128  22.554 -22.134  0.00  0.00    +0.134 A 
ATOM      5  CE1 TYR A   1     -23.955  23.351 -22.916  0.00  0.00    +0.036 A 
ATOM      6  CD1 TYR A   1     -25.269  23.577 -22.514  0.00  0.00    -0.001 A 
ENDROOT
BRANCH   4   7
ATOM      7  OH  TYR A   1     -21.831  22.279 -22.517  0.00  0.00    -0.506 OA
ATOM      8  HH  TYR A   1     -21.727  21.303 -22.648  0.00  0.00    +0.292 HD
ENDBRANCH   4   7
BRANCH   1   9
ATOM      9  CB  TYR A   1     -27.193  23.268 -20.899  0.00  0.00    +0.051 C 
BRANCH   9  10
ATOM     10  CA  TYR A   1     -27.497  24.689 -20.449  0.00  0.00    +0.137 C 
BRANCH  10  11
ATOM     11  N   TYR A   1     -27.120  24.887 -19.054  0.00  0.00    -0.239 NA
ATOM     12  H   TYR A   1     -26.847  24.066 -18.476  0.00  0.00    +0.142 HD
ENDBRANCH  10  11
BRANCH  10  13
ATOM     13  C   TYR A   1     -28.972  25.002 -20.698  0.00  0.00    +0.224 C 
ATOM     14  O   TYR A   1     -29.358  25.265 -21.834  0.00  0.00    -0.287 OA
ENDBRANCH  10  13
ENDBRANCH   9  10
ENDBRANCH   1   9
TORSDOF 5
REMARK  Name = ../refined-set-2016/4v24/4v24_pocket.pdb
REMARK  307 active torsions:
REMARK  status: ('A' for Active; 'I' for Inactive)
REMARK    1  A    between atoms: _1  and  _3
REMARK    2  A    between atoms: _3  and  _4
REMARK    3  A    between atoms: _6  and  _8
REMARK    4  A    between atoms: _8  and  _9
REMARK    5  A    between atoms: _8  and  _11
REMARK    6  A    between atoms: _11  and  _12
REMARK    7  A    between atoms: _15  and  _17
REMARK    8  A    between atoms: _17  and  _18
REMARK    9  A    between atoms: _20  and  _22
REMARK   10  A    between atoms: _22  and  _23
REMARK   11  A    between atoms: _25  and  _27
REMARK   12  A    between atoms: _27  and  _28
REMARK   13  A    between atoms: _27  and  _30
REMARK   14  A    between atoms: _30  and  _31
REMARK   15  A    between atoms: _36  and  _38
REMARK   16  A    between atoms: _38  and  _39
REMARK   17  A    between atoms: _42  and  _44
REMARK   18  A    between atoms: _44  and  _45
REMARK   19  A    between atoms: _44  and  _47
REMARK   20  A    between atoms: _47  and  _48
REMARK   21  A    between atoms: _51  and  _53
REMARK   22  A    between atoms: _53  and  _54
REMARK   23  A    between atoms: _53  and  _56
REMARK   24  A    between atoms: _56  and  _57
REMARK   25  A    between atoms: _60  and  _62
REMARK   26  A    between atoms: _62  and  _63
REMARK   27  A    between atoms: _62  and  _65
REMARK   28  A    between atoms: _65  and  _66
REMARK   29  A    between atoms: _68  and  _70
REMARK   30  A    between atoms: _70  and  _71
REMARK   31  A    between atoms: _70  and  _73
REMARK   32  A    between atoms: _73  and  _74
REMARK   33  A    between atoms: _77  and  _79
REMARK   34  A    between atoms: _79  and  _80
REMARK   35  A    between atoms: _83  and  _85
REMARK   36  A    between atoms: _85  and  _86
REMARK   37  A    between atoms: _85  and  _88
REMARK   38  A    between atoms: _88  and  _89
REMARK   39  A    between atoms: _99  and  _101
REMARK   40  A    between atoms: _101  and  _102
REMARK   41  A    between atoms: _101  and  _104
REMARK   42  A    between atoms: _104  and  _105
REMARK   43  A    between atoms: _111  and  _113
REMARK   44  A    between atoms: _113  and  _114
REMARK   45  A    between atoms: _113  and  _116
REMARK   46  A    between atoms: _116  and  _117
REMARK   47  A    between atoms: _120  and  _122
REMARK   48  A    between atoms: _122  and  _123
REMARK   49  A    between atoms: _126  and  _128
REMARK   50  A    between atoms: _128  and  _129
REMARK   51  A    between atoms: _128  and  _131
REMARK   52  A    between atoms: _131  and  _132
REMARK   53  A    between atoms: _135  and  _137
REMARK   54  A    between atoms: _137  and  _138
REMARK   55  A    between atoms: _137  and  _140
REMARK   56  A    between atoms: _143  and  _145
REMARK   57  A    between atoms: _145  and  _146
REMARK   58  A    between atoms: _145  and  _148
REMARK   59  A    between atoms: _148  and  _149
REMARK   60  A    between atoms: _152  and  _154
REMARK   61  A    between atoms: _154  and  _155
REMARK   62  A    between atoms: _154  and  _157
REMARK   63  A    between atoms: _157  and  _158
REMARK   64  A    between atoms: _161  and  _163
REMARK   65  A    between atoms: _163  and  _164
REMARK   66  A    between atoms: _163  and  _166
REMARK   67  A    between atoms: _166  and  _167
REMARK   68  A    between atoms: _169  and  _171
REMARK   69  A    between atoms: _171  and  _172
REMARK   70  A    between atoms: _171  and  _174
REMARK   71  A    between atoms: _174  and  _175
REMARK   72  A    between atoms: _175  and  _176
REMARK   73  A    between atoms: _179  and  _181
REMARK   74  A    between atoms: _181  and  _182
REMARK   75  A    between atoms: _181  and  _184
REMARK   76  A    between atoms: _184  and  _185
REMARK   77  A    between atoms: _185  and  _186
REMARK   78  A    between atoms: _186  and  _187
REMARK   79  A    between atoms: _196  and  _198
REMARK   80  A    between atoms: _198  and  _199
REMARK   81  A    between atoms: _198  and  _201
REMARK   82  A    between atoms: _201  and  _202
REMARK   83  A    between atoms: _208  and  _210
REMARK   84  A    between atoms: _210  and  _211
REMARK   85  A    between atoms: _210  and  _213
REMARK   86  A    between atoms: _213  and  _214
REMARK   87  A    between atoms: _217  and  _219
REMARK   88  A    between atoms: _219  and  _220
REMARK   89  A    between atoms: _222  and  _224
REMARK   90  A    between atoms: _224  and  _225
REMARK   91  A    between atoms: _224  and  _227
REMARK   92  A    between atoms: _227  and  _228
REMARK   93  A    between atoms: _231  and  _233
REMARK   94  A    between atoms: _233  and  _234
REMARK   95  A    between atoms: _233  and  _236
REMARK   96  A    between atoms: _236  and  _237
REMARK   97  A    between atoms: _243  and  _245
REMARK   98  A    between atoms: _245  and  _246
REMARK   99  A    between atoms: _245  and  _248
REMARK  100  A    between atoms: _248  and  _249
REMARK  101  A    between atoms: _249  and  _250
REMARK  102  A    between atoms: _250  and  _251
REMARK  103  A    between atoms: _260  and  _262
REMARK  104  A    between atoms: _262  and  _263
REMARK  105  A    between atoms: _262  and  _265
REMARK  106  A    between atoms: _265  and  _266
REMARK  107  A    between atoms: _269  and  _271
REMARK  108  A    between atoms: _271  and  _272
REMARK  109  A    between atoms: _271  and  _274
REMARK  110  A    between atoms: _274  and  _275
REMARK  111  A    between atoms: _278  and  _280
REMARK  112  A    between atoms: _280  and  _281
REMARK  113  A    between atoms: _280  and  _283
REMARK  114  A    between atoms: _286  and  _288
REMARK  115  A    between atoms: _288  and  _289
REMARK  116  A    between atoms: _288  and  _291
REMARK  117  A    between atoms: _291  and  _292
REMARK  118  A    between atoms: _295  and  _297
REMARK  119  A    between atoms: _297  and  _298
REMARK  120  A    between atoms: _297  and  _300
REMARK  121  A    between atoms: _303  and  _305
REMARK  122  A    between atoms: _305  and  _306
REMARK  123  A    between atoms: _305  and  _308
REMARK  124  A    between atoms: _308  and  _309
REMARK  125  A    between atoms: _312  and  _314
REMARK  126  A    between atoms: _314  and  _315
REMARK  127  A    between atoms: _318  and  _320
REMARK  128  A    between atoms: _320  and  _321
REMARK  129  A    between atoms: _320  and  _323
REMARK  130  A    between atoms: _323  and  _324
REMARK  131  A    between atoms: _327  and  _329
REMARK  132  A    between atoms: _329  and  _330
REMARK  133  A    between atoms: _329  and  _332
REMARK  134  A    between atoms: _332  and  _333
REMARK  135  A    between atoms: _335  and  _337
REMARK  136  A    between atoms: _337  and  _338
REMARK  137  A    between atoms: _337  and  _340
REMARK  138  A    between atoms: _340  and  _341
REMARK  139  A    between atoms: _346  and  _348
REMARK  140  A    between atoms: _348  and  _349
REMARK  141  A    between atoms: _348  and  _351
REMARK  142  A    between atoms: _351  and  _352
REMARK  143  A    between atoms: _355  and  _357
REMARK  144  A    between atoms: _357  and  _358
REMARK  145  A    between atoms: _360  and  _362
REMARK  146  A    between atoms: _362  and  _363
REMARK  147  A    between atoms: _362  and  _365
REMARK  148  A    between atoms: _365  and  _366
REMARK  149  A    between atoms: _368  and  _370
REMARK  150  A    between atoms: _370  and  _371
REMARK  151  A    between atoms: _370  and  _373
REMARK  152  A    between atoms: _373  and  _374
REMARK  153  A    between atoms: _374  and  _375
REMARK  154  A    between atoms: _377  and  _379
REMARK  155  A    between atoms: _379  and  _380
REMARK  156  A    between atoms: _379  and  _382
REMARK  157  A    between atoms: _382  and  _383
REMARK  158  A    between atoms: _389  and  _391
REMARK  159  A    between atoms: _391  and  _392
REMARK  160  A    between atoms: _395  and  _397
REMARK  161  A    between atoms: _397  and  _398
REMARK  162  A    between atoms: _402  and  _403
REMARK  163  A    between atoms: _408  and  _410
REMARK  164  A    between atoms: _410  and  _411
REMARK  165  A    between atoms: _410  and  _413
REMARK  166  A    between atoms: _413  and  _414
REMARK  167  A    between atoms: _414  and  _415
REMARK  168  A    between atoms: _417  and  _419
REMARK  169  A    between atoms: _419  and  _420
REMARK  170  A    between atoms: _419  and  _422
REMARK  171  A    between atoms: _422  and  _423
REMARK  172  A    between atoms: _428  and  _430
REMARK  173  A    between atoms: _430  and  _431
REMARK  174  A    between atoms: _430  and  _433
REMARK  175  A    between atoms: _433  and  _434
REMARK  176  A    between atoms: _437  and  _439
REMARK  177  A    between atoms: _439  and  _440
REMARK  178  A    between atoms: _439  and  _442
REMARK  179  A    between atoms: _442  and  _443
REMARK  180  A    between atoms: _449  and  _451
REMARK  181  A    between atoms: _451  and  _452
REMARK  182  A    between atoms: _451  and  _454
REMARK  183  A    between atoms: _454  and  _455
REMARK  184  A    between atoms: _460  and  _461
REMARK  185  A    between atoms: _463  and  _465
REMARK  186  A    between atoms: _465  and  _466
REMARK  187  A    between atoms: _465  and  _468
REMARK  188  A    between atoms: _471  and  _473
REMARK  189  A    between atoms: _473  and  _474
REMARK  190  A    between atoms: _473  and  _476
REMARK  191  A    between atoms: _479  and  _481
REMARK  192  A    between atoms: _481  and  _482
REMARK  193  A    between atoms: _481  and  _484
REMARK  194  A    between atoms: _484  and  _485
REMARK  195  A    between atoms: _487  and  _489
REMARK  196  A    between atoms: _489  and  _490
REMARK  197  A    between atoms: _489  and  _492
REMARK  198  A    between atoms: _492  and  _493
REMARK  199  A    between atoms: _493  and  _494
REMARK  200  A    between atoms: _494  and  _495
REMARK  201  A    between atoms: _504  and  _506
REMARK  202  A    between atoms: _506  and  _507
REMARK  203  A    between atoms: _506  and  _509
REMARK  204  A    between atoms: _509  and  _510
REMARK  205  A    between atoms: _510  and  _511
REMARK  206  A    between atoms: _513  and  _515
REMARK  207  A    between atoms: _515  and  _516
REMARK  208  A    between atoms: _515  and  _518
REMARK  209  A    between atoms: _518  and  _519
REMARK  210  A    between atoms: _522  and  _524
REMARK  211  A    between atoms: _524  and  _525
REMARK  212  A    between atoms: _524  and  _527
REMARK  213  A    between atoms: _527  and  _528
REMARK  214  A    between atoms: _531  and  _533
REMARK  215  A    between atoms: _533  and  _534
REMARK  216  A    between atoms: _533  and  _536
REMARK  217  A    between atoms: _536  and  _537
REMARK  218  A    between atoms: _537  and  _538
REMARK  219  A    between atoms: _538  and  _539
REMARK  220  A    between atoms: _548  and  _550
REMARK  221  A    between atoms: _550  and  _551
REMARK  222  A    between atoms: _550  and  _553
REMARK  223  A    between atoms: _553  and  _554
REMARK  224  A    between atoms: _557  and  _559
REMARK  225  A    between atoms: _559  and  _560
REMARK  226  A    between atoms: _559  and  _562
REMARK  227  A    between atoms: _562  and  _563
REMARK  228  A    between atoms: _569  and  _571
REMARK  229  A    between atoms: _571  and  _572
REMARK  230  A    between atoms: _571  and  _574
REMARK  231  A    between atoms: _574  and  _575
REMARK  232  A    between atoms: _578  and  _580
REMARK  233  A    between atoms: _580  and  _581
REMARK  234  A    between atoms: _584  and  _586
REMARK  235  A    between atoms: _586  and  _587
REMARK  236  A    between atoms: _586  and  _589
REMARK  237  A    between atoms: _589  and  _590
REMARK  238  A    between atoms: _590  and  _591
REMARK  239  A    between atoms: _593  and  _595
REMARK  240  A    between atoms: _595  and  _596
REMARK  241  A    between atoms: _595  and  _598
REMARK  242  A    between atoms: _598  and  _599
REMARK  243  A    between atoms: _599  and  _600
REMARK  244  A    between atoms: _603  and  _605
REMARK  245  A    between atoms: _605  and  _606
REMARK  246  A    between atoms: _605  and  _608
REMARK  247  A    between atoms: _608  and  _609
REMARK  248  A    between atoms: _609  and  _610
REMARK  249  A    between atoms: _610  and  _611
REMARK  250  A    between atoms: _620  and  _622
REMARK  251  A    between atoms: _622  and  _623
REMARK  252  A    between atoms: _622  and  _625
REMARK  253  A    between atoms: _625  and  _626
REMARK  254  A    between atoms: _631  and  _633
REMARK  255  A    between atoms: _633  and  _634
REMARK  256  A    between atoms: _633  and  _636
REMARK  257  A    between atoms: _636  and  _637
REMARK  258  A    between atoms: _637  and  _638
REMARK  259  A    between atoms: _640  and  _642
REMARK  260  A    between atoms: _642  and  _643
REMARK  261  A    between atoms: _642  and  _645
REMARK  262  A    between atoms: _645  and  _646
REMARK  263  A    between atoms: _651  and  _652
REMARK  264  A    between atoms: _654  and  _656
REMARK  265  A    between atoms: _656  and  _657
REMARK  266  A    between atoms: _656  and  _659
REMARK  267  A    between atoms: _661  and  _663
REMARK  268  A    between atoms: _663  and  _664
REMARK  269  A    between atoms: _663  and  _666
REMARK  270  A    between atoms: _666  and  _667
REMARK  271  A    between atoms: _672  and  _673
REMARK  272  A    between atoms: _675  and  _677
REMARK  273  A    between atoms: _677  and  _678
REMARK  274  A    between atoms: _677  and  _680
REMARK  275  A    between atoms: _680  and  _681
REMARK  276  A    between atoms: _684  and  _686
REMARK  277  A    between atoms: _686  and  _687
REMARK  278  A    between atoms: _686  and  _689
REMARK  279  A    between atoms: _692  and  _694
REMARK  280  A    between atoms: _694  and  _695
REMARK  281  A    between atoms: _694  and  _697
REMARK  282  A    between atoms: _697  and  _698
REMARK  283  A    between atoms: _703  and  _704
REMARK  284  A    between atoms: _706  and  _708
REMARK  285  A    between atoms: _708  and  _709
REMARK  286  A    between atoms: _708  and  _711
REMARK  287  A    between atoms: _711  and  _712
REMARK  288  A    between atoms: _718  and  _720
REMARK  289  A    between atoms: _720  and  _721
REMARK  290  A    between atoms: _724  and  _726
REMARK  291  A    between atoms: _726  and  _727
REMARK  292  A    between atoms: _726  and  _729
REMARK  293  A    between atoms: _732  and  _734
REMARK  294  A    between atoms: _734  and  _735
REMARK  295  A    between atoms: _734  and  _737
REMARK  296  A    between atoms: _737  and  _738
REMARK  297  A    between atoms: _741  and  _743
REMARK  298  A    between atoms: _743  and  _744
REMARK  299  A    between atoms: _746  and  _748
REMARK  300  A    between atoms: _748  and  _749
REMARK  301  A    between atoms: _748  and  _751
REMARK  302  A    between atoms: _751  and  _752
REMARK  303  A    between atoms: _752  and  _753
REMARK  304  A    between atoms: _756  and  _758
REMARK  305  A    between atoms: _758  and  _759
REMARK  306  A    between atoms: _758  and  _761
REMARK  307  A    between atoms: _761  and  _762
REMARK                            x       y       z     vdW  Elec       q    Type
REMARK                         _______ _______ _______ _____ _____    ______ ____
ROOT
ATOM      1  CA  CYS A   1     -31.847  22.023 -21.855  0.00  0.00    +0.145 C 
ENDROOT
BRANCH   1   2
ATOM      2  N   CYS A   1     -31.314  23.015 -20.932  0.00  0.00    -0.238 NA
ATOM      3  H   CYS A   1     -30.525  22.752 -20.308  0.00  0.00    +0.142 HD
ENDBRANCH   1   2
BRANCH   1   4
ATOM      4  C   CYS A   1     -33.290  21.725 -21.473  0.00  0.00    +0.225 C 
ATOM      5  O   CYS A   1     -33.551  21.389 -20.310  0.00  0.00    -0.287 OA
ENDBRANCH   1   4
BRANCH   1   6
ATOM      6  CB  CYS A   1     -31.004  20.758 -21.749  0.00  0.00    +0.094 C 
ATOM      7  SG  CYS A   1     -31.659  19.330 -22.610  0.00  0.00    -0.080 S 
ENDBRANCH   1   6
TORSDOF 3
REMARK  Name = ../refined-set-2016/4v24/4v24_pocket.pdb
REMARK  307 active torsions:
REMARK  status: ('A' for Active; 'I' for Inactive)
REMARK    1  A    between atoms: _1  and  _3
REMARK    2  A    between atoms: _3  and  _4
REMARK    3  A    between atoms: _6  and  _8
REMARK    4  A    between atoms: _8  and  _9
REMARK    5  A    between atoms: _8  and  _11
REMARK    6  A    between atoms: _11  and  _12
REMARK    7  A    between atoms: _15  and  _17
REMARK    8  A    between atoms: _17  and  _18
REMARK    9  A    between atoms: _20  and  _22
REMARK   10  A    between atoms: _22  and  _23
REMARK   11  A    between atoms: _25  and  _27
REMARK   12  A    between atoms: _27  and  _28
REMARK   13  A    between atoms: _27  and  _30
REMARK   14  A    between atoms: _30  and  _31
REMARK   15  A    between atoms: _36  and  _38
REMARK   16  A    between atoms: _38  and  _39
REMARK   17  A    between atoms: _42  and  _44
REMARK   18  A    between atoms: _44  and  _45
REMARK   19  A    between atoms: _44  and  _47
REMARK   20  A    between atoms: _47  and  _48
REMARK   21  A    between atoms: _51  and  _53
REMARK   22  A    between atoms: _53  and  _54
REMARK   23  A    between atoms: _53  and  _56
REMARK   24  A    between atoms: _56  and  _57
REMARK   25  A    between atoms: _60  and  _62
REMARK   26  A    between atoms: _62  and  _63
REMARK   27  A    between atoms: _62  and  _65
REMARK   28  A    between atoms: _65  and  _66
REMARK   29  A    between atoms: _68  and  _70
REMARK   30  A    between atoms: _70  and  _71
REMARK   31  A    between atoms: _70  and  _73
REMARK   32  A    between atoms: _73  and  _74
REMARK   33  A    between atoms: _77  and  _79
REMARK   34  A    between atoms: _79  and  _80
REMARK   35  A    between atoms: _83  and  _85
REMARK   36  A    between atoms: _85  and  _86
REMARK   37  A    between atoms: _85  and  _88
REMARK   38  A    between atoms: _88  and  _89
REMARK   39  A    between atoms: _99  and  _101
REMARK   40  A    between atoms: _101  and  _102
REMARK   41  A    between atoms: _101  and  _104
REMARK   42  A    between atoms: _104  and  _105
REMARK   43  A    between atoms: _111  and  _113
REMARK   44  A    between atoms: _113  and  _114
REMARK   45  A    between atoms: _113  and  _116
REMARK   46  A    between atoms: _116  and  _117
REMARK   47  A    between atoms: _120  and  _122
REMARK   48  A    between atoms: _122  and  _123
REMARK   49  A    between atoms: _126  and  _128
REMARK   50  A    between atoms: _128  and  _129
REMARK   51  A    between atoms: _128  and  _131
REMARK   52  A    between atoms: _131  and  _132
REMARK   53  A    between atoms: _135  and  _137
REMARK   54  A    between atoms: _137  and  _138
REMARK   55  A    between atoms: _137  and  _140
REMARK   56  A    between atoms: _143  and  _145
REMARK   57  A    between atoms: _145  and  _146
REMARK   58  A    between atoms: _145  and  _148
REMARK   59  A    between atoms: _148  and  _149
REMARK   60  A    between atoms: _152  and  _154
REMARK   61  A    between atoms: _154  and  _155
REMARK   62  A    between atoms: _154  and  _157
REMARK   63  A    between atoms: _157  and  _158
REMARK   64  A    between atoms: _161  and  _163
REMARK   65  A    between atoms: _163  and  _164
REMARK   66  A    between atoms: _163  and  _166
REMARK   67  A    between atoms: _166  and  _167
REMARK   68  A    between atoms: _169  and  _171
REMARK   69  A    between atoms: _171  and  _172
REMARK   70  A    between atoms: _171  and  _174
REMARK   71  A    between atoms: _174  and  _175
REMARK   72  A    between atoms: _175  and  _176
REMARK   73  A    between atoms: _179  and  _181
REMARK   74  A    between atoms: _181  and  _182
REMARK   75  A    between atoms: _181  and  _184
REMARK   76  A    between atoms: _184  and  _185
REMARK   77  A    between atoms: _185  and  _186
REMARK   78  A    between atoms: _186  and  _187
REMARK   79  A    between atoms: _196  and  _198
REMARK   80  A    between atoms: _198  and  _199
REMARK   81  A    between atoms: _198  and  _201
REMARK   82  A    between atoms: _201  and  _202
REMARK   83  A    between atoms: _208  and  _210
REMARK   84  A    between atoms: _210  and  _211
REMARK   85  A    between atoms: _210  and  _213
REMARK   86  A    between atoms: _213  and  _214
REMARK   87  A    between atoms: _217  and  _219
REMARK   88  A    between atoms: _219  and  _220
REMARK   89  A    between atoms: _222  and  _224
REMARK   90  A    between atoms: _224  and  _225
REMARK   91  A    between atoms: _224  and  _227
REMARK   92  A    between atoms: _227  and  _228
REMARK   93  A    between atoms: _231  and  _233
REMARK   94  A    between atoms: _233  and  _234
REMARK   95  A    between atoms: _233  and  _236
REMARK   96  A    between atoms: _236  and  _237
REMARK   97  A    between atoms: _243  and  _245
REMARK   98  A    between atoms: _245  and  _246
REMARK   99  A    between atoms: _245  and  _248
REMARK  100  A    between atoms: _248  and  _249
REMARK  101  A    between atoms: _249  and  _250
REMARK  102  A    between atoms: _250  and  _251
REMARK  103  A    between atoms: _260  and  _262
REMARK  104  A    between atoms: _262  and  _263
REMARK  105  A    between atoms: _262  and  _265
REMARK  106  A    between atoms: _265  and  _266
REMARK  107  A    between atoms: _269  and  _271
REMARK  108  A    between atoms: _271  and  _272
REMARK  109  A    between atoms: _271  and  _274
REMARK  110  A    between atoms: _274  and  _275
REMARK  111  A    between atoms: _278  and  _280
REMARK  112  A    between atoms: _280  and  _281
REMARK  113  A    between atoms: _280  and  _283
REMARK  114  A    between atoms: _286  and  _288
REMARK  115  A    between atoms: _288  and  _289
REMARK  116  A    between atoms: _288  and  _291
REMARK  117  A    between atoms: _291  and  _292
REMARK  118  A    between atoms: _295  and  _297
REMARK  119  A    between atoms: _297  and  _298
REMARK  120  A    between atoms: _297  and  _300
REMARK  121  A    between atoms: _303  and  _305
REMARK  122  A    between atoms: _305  and  _306
REMARK  123  A    between atoms: _305  and  _308
REMARK  124  A    between atoms: _308  and  _309
REMARK  125  A    between atoms: _312  and  _314
REMARK  126  A    between atoms: _314  and  _315
REMARK  127  A    between atoms: _318  and  _320
REMARK  128  A    between atoms: _320  and  _321
REMARK  129  A    between atoms: _320  and  _323
REMARK  130  A    between atoms: _323  and  _324
REMARK  131  A    between atoms: _327  and  _329
REMARK  132  A    between atoms: _329  and  _330
REMARK  133  A    between atoms: _329  and  _332
REMARK  134  A    between atoms: _332  and  _333
REMARK  135  A    between atoms: _335  and  _337
REMARK  136  A    between atoms: _337  and  _338
REMARK  137  A    between atoms: _337  and  _340
REMARK  138  A    between atoms: _340  and  _341
REMARK  139  A    between atoms: _346  and  _348
REMARK  140  A    between atoms: _348  and  _349
REMARK  141  A    between atoms: _348  and  _351
REMARK  142  A    between atoms: _351  and  _352
REMARK  143  A    between atoms: _355  and  _357
REMARK  144  A    between atoms: _357  and  _358
REMARK  145  A    between atoms: _360  and  _362
REMARK  146  A    between atoms: _362  and  _363
REMARK  147  A    between atoms: _362  and  _365
REMARK  148  A    between atoms: _365  and  _366
REMARK  149  A    between atoms: _368  and  _370
REMARK  150  A    between atoms: _370  and  _371
REMARK  151  A    between atoms: _370  and  _373
REMARK  152  A    between atoms: _373  and  _374
REMARK  153  A    between atoms: _374  and  _375
REMARK  154  A    between atoms: _377  and  _379
REMARK  155  A    between atoms: _379  and  _380
REMARK  156  A    between atoms: _379  and  _382
REMARK  157  A    between atoms: _382  and  _383
REMARK  158  A    between atoms: _389  and  _391
REMARK  159  A    between atoms: _391  and  _392
REMARK  160  A    between atoms: _395  and  _397
REMARK  161  A    between atoms: _397  and  _398
REMARK  162  A    between atoms: _402  and  _403
REMARK  163  A    between atoms: _408  and  _410
REMARK  164  A    between atoms: _410  and  _411
REMARK  165  A    between atoms: _410  and  _413
REMARK  166  A    between atoms: _413  and  _414
REMARK  167  A    between atoms: _414  and  _415
REMARK  168  A    between atoms: _417  and  _419
REMARK  169  A    between atoms: _419  and  _420
REMARK  170  A    between atoms: _419  and  _422
REMARK  171  A    between atoms: _422  and  _423
REMARK  172  A    between atoms: _428  and  _430
REMARK  173  A    between atoms: _430  and  _431
REMARK  174  A    between atoms: _430  and  _433
REMARK  175  A    between atoms: _433  and  _434
REMARK  176  A    between atoms: _437  and  _439
REMARK  177  A    between atoms: _439  and  _440
REMARK  178  A    between atoms: _439  and  _442
REMARK  179  A    between atoms: _442  and  _443
REMARK  180  A    between atoms: _449  and  _451
REMARK  181  A    between atoms: _451  and  _452
REMARK  182  A    between atoms: _451  and  _454
REMARK  183  A    between atoms: _454  and  _455
REMARK  184  A    between atoms: _460  and  _461
REMARK  185  A    between atoms: _463  and  _465
REMARK  186  A    between atoms: _465  and  _466
REMARK  187  A    between atoms: _465  and  _468
REMARK  188  A    between atoms: _471  and  _473
REMARK  189  A    between atoms: _473  and  _474
REMARK  190  A    between atoms: _473  and  _476
REMARK  191  A    between atoms: _479  and  _481
REMARK  192  A    between atoms: _481  and  _482
REMARK  193  A    between atoms: _481  and  _484
REMARK  194  A    between atoms: _484  and  _485
REMARK  195  A    between atoms: _487  and  _489
REMARK  196  A    between atoms: _489  and  _490
REMARK  197  A    between atoms: _489  and  _492
REMARK  198  A    between atoms: _492  and  _493
REMARK  199  A    between atoms: _493  and  _494
REMARK  200  A    between atoms: _494  and  _495
REMARK  201  A    between atoms: _504  and  _506
REMARK  202  A    between atoms: _506  and  _507
REMARK  203  A    between atoms: _506  and  _509
REMARK  204  A    between atoms: _509  and  _510
REMARK  205  A    between atoms: _510  and  _511
REMARK  206  A    between atoms: _513  and  _515
REMARK  207  A    between atoms: _515  and  _516
REMARK  208  A    between atoms: _515  and  _518
REMARK  209  A    between atoms: _518  and  _519
REMARK  210  A    between atoms: _522  and  _524
REMARK  211  A    between atoms: _524  and  _525
REMARK  212  A    between atoms: _524  and  _527
REMARK  213  A    between atoms: _527  and  _528
REMARK  214  A    between atoms: _531  and  _533
REMARK  215  A    between atoms: _533  and  _534
REMARK  216  A    between atoms: _533  and  _536
REMARK  217  A    between atoms: _536  and  _537
REMARK  218  A    between atoms: _537  and  _538
REMARK  219  A    between atoms: _538  and  _539
REMARK  220  A    between atoms: _548  and  _550
REMARK  221  A    between atoms: _550  and  _551
REMARK  222  A    between atoms: _550  and  _553
REMARK  223  A    between atoms: _553  and  _554
REMARK  224  A    between atoms: _557  and  _559
REMARK  225  A    between atoms: _559  and  _560
REMARK  226  A    between atoms: _559  and  _562
REMARK  227  A    between atoms: _562  and  _563
REMARK  228  A    between atoms: _569  and  _571
REMARK  229  A    between atoms: _571  and  _572
REMARK  230  A    between atoms: _571  and  _574
REMARK  231  A    between atoms: _574  and  _575
REMARK  232  A    between atoms: _578  and  _580
REMARK  233  A    between atoms: _580  and  _581
REMARK  234  A    between atoms: _584  and  _586
REMARK  235  A    between atoms: _586  and  _587
REMARK  236  A    between atoms: _586  and  _589
REMARK  237  A    between atoms: _589  and  _590
REMARK  238  A    between atoms: _590  and  _591
REMARK  239  A    between atoms: _593  and  _595
REMARK  240  A    between atoms: _595  and  _596
REMARK  241  A    between atoms: _595  and  _598
REMARK  242  A    between atoms: _598  and  _599
REMARK  243  A    between atoms: _599  and  _600
REMARK  244  A    between atoms: _603  and  _605
REMARK  245  A    between atoms: _605  and  _606
REMARK  246  A    between atoms: _605  and  _608
REMARK  247  A    between atoms: _608  and  _609
REMARK  248  A    between atoms: _609  and  _610
REMARK  249  A    between atoms: _610  and  _611
REMARK  250  A    between atoms: _620  and  _622
REMARK  251  A    between atoms: _622  and  _623
REMARK  252  A    between atoms: _622  and  _625
REMARK  253  A    between atoms: _625  and  _626
REMARK  254  A    between atoms: _631  and  _633
REMARK  255  A    between atoms: _633  and  _634
REMARK  256  A    between atoms: _633  and  _636
REMARK  257  A    between atoms: _636  and  _637
REMARK  258  A    between atoms: _637  and  _638
REMARK  259  A    between atoms: _640  and  _642
REMARK  260  A    between atoms: _642  and  _643
REMARK  261  A    between atoms: _642  and  _645
REMARK  262  A    between atoms: _645  and  _646
REMARK  263  A    between atoms: _651  and  _652
REMARK  264  A    between atoms: _654  and  _656
REMARK  265  A    between atoms: _656  and  _657
REMARK  266  A    between atoms: _656  and  _659
REMARK  267  A    between atoms: _661  and  _663
REMARK  268  A    between atoms: _663  and  _664
REMARK  269  A    between atoms: _663  and  _666
REMARK  270  A    between atoms: _666  and  _667
REMARK  271  A    between atoms: _672  and  _673
REMARK  272  A    between atoms: _675  and  _677
REMARK  273  A    between atoms: _677  and  _678
REMARK  274  A    between atoms: _677  and  _680
REMARK  275  A    between atoms: _680  and  _681
REMARK  276  A    between atoms: _684  and  _686
REMARK  277  A    between atoms: _686  and  _687
REMARK  278  A    between atoms: _686  and  _689
REMARK  279  A    between atoms: _692  and  _694
REMARK  280  A    between atoms: _694  and  _695
REMARK  281  A    between atoms: _694  and  _697
REMARK  282  A    between atoms: _697  and  _698
REMARK  283  A    between atoms: _703  and  _704
REMARK  284  A    between atoms: _706  and  _708
REMARK  285  A    between atoms: _708  and  _709
REMARK  286  A    between atoms: _708  and  _711
REMARK  287  A    between atoms: _711  and  _712
REMARK  288  A    between atoms: _718  and  _720
REMARK  289  A    between atoms: _720  and  _721
REMARK  290  A    between atoms: _724  and  _726
REMARK  291  A    between atoms: _726  and  _727
REMARK  292  A    between atoms: _726  and  _729
REMARK  293  A    between atoms: _732  and  _734
REMARK  294  A    between atoms: _734  and  _735
REMARK  295  A    between atoms: _734  and  _737
REMARK  296  A    between atoms: _737  and  _738
REMARK  297  A    between atoms: _741  and  _743
REMARK  298  A    between atoms: _743  and  _744
REMARK  299  A    between atoms: _746  and  _748
REMARK  300  A    between atoms: _748  and  _749
REMARK  301  A    between atoms: _748  and  _751
REMARK  302  A    between atoms: _751  and  _752
REMARK  303  A    between atoms: _752  and  _753
REMARK  304  A    between atoms: _756  and  _758
REMARK  305  A    between atoms: _758  and  _759
REMARK  306  A    between atoms: _758  and  _761
REMARK  307  A    between atoms: _761  and  _762
REMARK                            x       y       z     vdW  Elec       q    Type
REMARK                         _______ _______ _______ _____ _____    ______ ____
ROOT
ATOM      1  C   LEU A   2     -34.798  18.628 -17.458  0.00  0.00    +0.241 C 
ATOM      2  N   VAL A   3     -35.639  17.932 -16.689  0.00  0.00    -0.297 N 
ATOM      3  H   VAL A   3     -35.633  16.893 -16.744  0.00  0.00    +0.150 HD
ATOM      4  O   LEU A   2     -34.700  19.845 -17.389  0.00  0.00    -0.273 OA
ENDROOT
BRANCH   2   5
ATOM      5  CA  VAL A   3     -36.574  18.593 -15.766  0.00  0.00    +0.149 C 
BRANCH   5   6
ATOM      6  C   VAL A   3     -36.189  18.256 -14.322  0.00  0.00    +0.241 C 
ATOM      7  N   TYR A   4     -36.194  19.251 -13.455  0.00  0.00    -0.298 N 
ATOM      8  H   TYR A   4     -36.445  20.201 -13.794  0.00  0.00    +0.150 HD
ATOM      9  O   VAL A   3     -35.822  17.121 -14.029  0.00  0.00    -0.273 OA
BRANCH   7  10
ATOM     10  CA  TYR A   4     -35.864  19.083 -12.042  0.00  0.00    +0.141 C 
BRANCH  10  11
ATOM     11  C   TYR A   4     -36.995  19.584 -11.203  0.00  0.00    +0.227 C 
ATOM     12  O   TYR A   4     -37.556  20.671 -11.463  0.00  0.00    -0.286 OA
ENDBRANCH  10  11
BRANCH  10  13
ATOM     13  CB  TYR A   4     -34.584  19.880 -11.660  0.00  0.00    +0.054 C 
BRANCH  13  14
ATOM     14  CG  TYR A   4     -34.449  20.002 -10.155  0.00  0.00    -0.020 A 
ATOM     15  CD2 TYR A   4     -33.966  18.911  -9.403  0.00  0.00    -0.001 A 
ATOM     16  CE2 TYR A   4     -33.871  18.978  -8.030  0.00  0.00    +0.036 A 
ATOM     17  CZ  TYR A   4     -34.279  20.118  -7.372  0.00  0.00    +0.134 A 
ATOM     18  CE1 TYR A   4     -34.774  21.207  -8.078  0.00  0.00    +0.036 A 
ATOM     19  CD1 TYR A   4     -34.850  21.131  -9.480  0.00  0.00    -0.001 A 
BRANCH  17  20
ATOM     20  OH  TYR A   4     -34.197  20.140  -6.022  0.00  0.00    -0.506 OA
ATOM     21  HH  TYR A   4     -33.823  19.281  -5.701  0.00  0.00    +0.292 HD
ENDBRANCH  17  20
ENDBRANCH  13  14
ENDBRANCH  10  13
ENDBRANCH   7  10
ENDBRANCH   5   6
BRANCH   5  22
ATOM     22  CB  VAL A   3     -38.034  18.156 -16.048  0.00  0.00    +0.027 C 
ATOM     23  CG2 VAL A   3     -39.019  18.840 -15.098  0.00  0.00    +0.002 C 
ATOM     24  CG1 VAL A   3     -38.422  18.382 -17.527  0.00  0.00    +0.002 C 
ENDBRANCH   5  22
ENDBRANCH   2   5
BRANCH   1  25
ATOM     25  CA  LEU A   2     -33.908  17.849 -18.416  0.00  0.00    +0.149 C 
BRANCH  25  27
ATOM     26  C   TYR A   1     -35.089  17.409 -20.525  0.00  0.00    +0.239 C 
ATOM     27  N   LEU A   2     -34.270  18.162 -19.810  0.00  0.00    -0.297 N 
ATOM     28  H   LEU A   2     -33.864  19.012 -20.251  0.00  0.00    +0.150 HD
ATOM     29  O   TYR A   1     -35.569  16.366 -20.103  0.00  0.00    -0.274 OA
BRANCH  26  30
ATOM     30  CA  TYR A   1     -35.438  17.883 -21.952  0.00  0.00    +0.149 C 
BRANCH  30  31
ATOM     31  N   TYR A   1     -35.162  19.287 -22.184  0.00  0.00    -0.238 NA
ATOM     32  H   TYR A   1     -34.278  19.570 -22.653  0.00  0.00    +0.142 HD
ENDBRANCH  30  31
BRANCH  30  33
ATOM     33  CB  TYR A   1     -34.725  17.036 -22.967  0.00  0.00    +0.053 C 
BRANCH  33  34
ATOM     34  CG  TYR A   1     -35.163  17.326 -24.396  0.00  0.00    -0.020 A 
ATOM     35  CD2 TYR A   1     -36.302  16.728 -24.919  0.00  0.00    -0.001 A 
ATOM     36  CE2 TYR A   1     -36.726  16.988 -26.216  0.00  0.00    +0.036 A 
ATOM     37  CZ  TYR A   1     -35.981  17.851 -27.002  0.00  0.00    +0.134 A 
ATOM     38  CE1 TYR A   1     -34.838  18.466 -26.512  0.00  0.00    +0.036 A 
ATOM     39  CD1 TYR A   1     -34.431  18.192 -25.209  0.00  0.00    -0.001 A 
BRANCH  37  40
ATOM     40  OH  TYR A   1     -36.400  18.066 -28.290  0.00  0.00    -0.506 OA
ATOM     41  HH  TYR A   1     -37.226  17.547 -28.458  0.00  0.00    +0.292 HD
ENDBRANCH  37  40
ENDBRANCH  33  34
ENDBRANCH  30  33
ENDBRANCH  26  30
ENDBRANCH  25  27
BRANCH  25  42
ATOM     42  CB  LEU A   2     -32.431  18.170 -18.145  0.00  0.00    +0.029 C 
BRANCH  42  43
ATOM     43  CG  LEU A   2     -31.931  17.994 -16.690  0.00  0.00    +0.002 C 
ATOM     44  CD2 LEU A   2     -32.055  16.539 -16.262  0.00  0.00    +0.000 C 
ATOM     45  CD1 LEU A   2     -30.499  18.480 -16.573  0.00  0.00    +0.000 C 
ENDBRANCH  42  43
ENDBRANCH  25  42
ENDBRANCH   1  25
TORSDOF 17
REMARK  Name = ../refined-set-2016/4v24/4v24_pocket.pdb
REMARK  307 active torsions:
REMARK  status: ('A' for Active; 'I' for Inactive)
REMARK    1  A    between atoms: _1  and  _3
REMARK    2  A    between atoms: _3  and  _4
REMARK    3  A    between atoms: _6  and  _8
REMARK    4  A    between atoms: _8  and  _9
REMARK    5  A    between atoms: _8  and  _11
REMARK    6  A    between atoms: _11  and  _12
REMARK    7  A    between atoms: _15  and  _17
REMARK    8  A    between atoms: _17  and  _18
REMARK    9  A    between atoms: _20  and  _22
REMARK   10  A    between atoms: _22  and  _23
REMARK   11  A    between atoms: _25  and  _27
REMARK   12  A    between atoms: _27  and  _28
REMARK   13  A    between atoms: _27  and  _30
REMARK   14  A    between atoms: _30  and  _31
REMARK   15  A    between atoms: _36  and  _38
REMARK   16  A    between atoms: _38  and  _39
REMARK   17  A    between atoms: _42  and  _44
REMARK   18  A    between atoms: _44  and  _45
REMARK   19  A    between atoms: _44  and  _47
REMARK   20  A    between atoms: _47  and  _48
REMARK   21  A    between atoms: _51  and  _53
REMARK   22  A    between atoms: _53  and  _54
REMARK   23  A    between atoms: _53  and  _56
REMARK   24  A    between atoms: _56  and  _57
REMARK   25  A    between atoms: _60  and  _62
REMARK   26  A    between atoms: _62  and  _63
REMARK   27  A    between atoms: _62  and  _65
REMARK   28  A    between atoms: _65  and  _66
REMARK   29  A    between atoms: _68  and  _70
REMARK   30  A    between atoms: _70  and  _71
REMARK   31  A    between atoms: _70  and  _73
REMARK   32  A    between atoms: _73  and  _74
REMARK   33  A    between atoms: _77  and  _79
REMARK   34  A    between atoms: _79  and  _80
REMARK   35  A    between atoms: _83  and  _85
REMARK   36  A    between atoms: _85  and  _86
REMARK   37  A    between atoms: _85  and  _88
REMARK   38  A    between atoms: _88  and  _89
REMARK   39  A    between atoms: _99  and  _101
REMARK   40  A    between atoms: _101  and  _102
REMARK   41  A    between atoms: _101  and  _104
REMARK   42  A    between atoms: _104  and  _105
REMARK   43  A    between atoms: _111  and  _113
REMARK   44  A    between atoms: _113  and  _114
REMARK   45  A    between atoms: _113  and  _116
REMARK   46  A    between atoms: _116  and  _117
REMARK   47  A    between atoms: _120  and  _122
REMARK   48  A    between atoms: _122  and  _123
REMARK   49  A    between atoms: _126  and  _128
REMARK   50  A    between atoms: _128  and  _129
REMARK   51  A    between atoms: _128  and  _131
REMARK   52  A    between atoms: _131  and  _132
REMARK   53  A    between atoms: _135  and  _137
REMARK   54  A    between atoms: _137  and  _138
REMARK   55  A    between atoms: _137  and  _140
REMARK   56  A    between atoms: _143  and  _145
REMARK   57  A    between atoms: _145  and  _146
REMARK   58  A    between atoms: _145  and  _148
REMARK   59  A    between atoms: _148  and  _149
REMARK   60  A    between atoms: _152  and  _154
REMARK   61  A    between atoms: _154  and  _155
REMARK   62  A    between atoms: _154  and  _157
REMARK   63  A    between atoms: _157  and  _158
REMARK   64  A    between atoms: _161  and  _163
REMARK   65  A    between atoms: _163  and  _164
REMARK   66  A    between atoms: _163  and  _166
REMARK   67  A    between atoms: _166  and  _167
REMARK   68  A    between atoms: _169  and  _171
REMARK   69  A    between atoms: _171  and  _172
REMARK   70  A    between atoms: _171  and  _174
REMARK   71  A    between atoms: _174  and  _175
REMARK   72  A    between atoms: _175  and  _176
REMARK   73  A    between atoms: _179  and  _181
REMARK   74  A    between atoms: _181  and  _182
REMARK   75  A    between atoms: _181  and  _184
REMARK   76  A    between atoms: _184  and  _185
REMARK   77  A    between atoms: _185  and  _186
REMARK   78  A    between atoms: _186  and  _187
REMARK   79  A    between atoms: _196  and  _198
REMARK   80  A    between atoms: _198  and  _199
REMARK   81  A    between atoms: _198  and  _201
REMARK   82  A    between atoms: _201  and  _202
REMARK   83  A    between atoms: _208  and  _210
REMARK   84  A    between atoms: _210  and  _211
REMARK   85  A    between atoms: _210  and  _213
REMARK   86  A    between atoms: _213  and  _214
REMARK   87  A    between atoms: _217  and  _219
REMARK   88  A    between atoms: _219  and  _220
REMARK   89  A    between atoms: _222  and  _224
REMARK   90  A    between atoms: _224  and  _225
REMARK   91  A    between atoms: _224  and  _227
REMARK   92  A    between atoms: _227  and  _228
REMARK   93  A    between atoms: _231  and  _233
REMARK   94  A    between atoms: _233  and  _234
REMARK   95  A    between atoms: _233  and  _236
REMARK   96  A    between atoms: _236  and  _237
REMARK   97  A    between atoms: _243  and  _245
REMARK   98  A    between atoms: _245  and  _246
REMARK   99  A    between atoms: _245  and  _248
REMARK  100  A    between atoms: _248  and  _249
REMARK  101  A    between atoms: _249  and  _250
REMARK  102  A    between atoms: _250  and  _251
REMARK  103  A    between atoms: _260  and  _262
REMARK  104  A    between atoms: _262  and  _263
REMARK  105  A    between atoms: _262  and  _265
REMARK  106  A    between atoms: _265  and  _266
REMARK  107  A    between atoms: _269  and  _271
REMARK  108  A    between atoms: _271  and  _272
REMARK  109  A    between atoms: _271  and  _274
REMARK  110  A    between atoms: _274  and  _275
REMARK  111  A    between atoms: _278  and  _280
REMARK  112  A    between atoms: _280  and  _281
REMARK  113  A    between atoms: _280  and  _283
REMARK  114  A    between atoms: _286  and  _288
REMARK  115  A    between atoms: _288  and  _289
REMARK  116  A    between atoms: _288  and  _291
REMARK  117  A    between atoms: _291  and  _292
REMARK  118  A    between atoms: _295  and  _297
REMARK  119  A    between atoms: _297  and  _298
REMARK  120  A    between atoms: _297  and  _300
REMARK  121  A    between atoms: _303  and  _305
REMARK  122  A    between atoms: _305  and  _306
REMARK  123  A    between atoms: _305  and  _308
REMARK  124  A    between atoms: _308  and  _309
REMARK  125  A    between atoms: _312  and  _314
REMARK  126  A    between atoms: _314  and  _315
REMARK  127  A    between atoms: _318  and  _320
REMARK  128  A    between atoms: _320  and  _321
REMARK  129  A    between atoms: _320  and  _323
REMARK  130  A    between atoms: _323  and  _324
REMARK  131  A    between atoms: _327  and  _329
REMARK  132  A    between atoms: _329  and  _330
REMARK  133  A    between atoms: _329  and  _332
REMARK  134  A    between atoms: _332  and  _333
REMARK  135  A    between atoms: _335  and  _337
REMARK  136  A    between atoms: _337  and  _338
REMARK  137  A    between atoms: _337  and  _340
REMARK  138  A    between atoms: _340  and  _341
REMARK  139  A    between atoms: _346  and  _348
REMARK  140  A    between atoms: _348  and  _349
REMARK  141  A    between atoms: _348  and  _351
REMARK  142  A    between atoms: _351  and  _352
REMARK  143  A    between atoms: _355  and  _357
REMARK  144  A    between atoms: _357  and  _358
REMARK  145  A    between atoms: _360  and  _362
REMARK  146  A    between atoms: _362  and  _363
REMARK  147  A    between atoms: _362  and  _365
REMARK  148  A    between atoms: _365  and  _366
REMARK  149  A    between atoms: _368  and  _370
REMARK  150  A    between atoms: _370  and  _371
REMARK  151  A    between atoms: _370  and  _373
REMARK  152  A    between atoms: _373  and  _374
REMARK  153  A    between atoms: _374  and  _375
REMARK  154  A    between atoms: _377  and  _379
REMARK  155  A    between atoms: _379  and  _380
REMARK  156  A    between atoms: _379  and  _382
REMARK  157  A    between atoms: _382  and  _383
REMARK  158  A    between atoms: _389  and  _391
REMARK  159  A    between atoms: _391  and  _392
REMARK  160  A    between atoms: _395  and  _397
REMARK  161  A    between atoms: _397  and  _398
REMARK  162  A    between atoms: _402  and  _403
REMARK  163  A    between atoms: _408  and  _410
REMARK  164  A    between atoms: _410  and  _411
REMARK  165  A    between atoms: _410  and  _413
REMARK  166  A    between atoms: _413  and  _414
REMARK  167  A    between atoms: _414  and  _415
REMARK  168  A    between atoms: _417  and  _419
REMARK  169  A    between atoms: _419  and  _420
REMARK  170  A    between atoms: _419  and  _422
REMARK  171  A    between atoms: _422  and  _423
REMARK  172  A    between atoms: _428  and  _430
REMARK  173  A    between atoms: _430  and  _431
REMARK  174  A    between atoms: _430  and  _433
REMARK  175  A    between atoms: _433  and  _434
REMARK  176  A    between atoms: _437  and  _439
REMARK  177  A    between atoms: _439  and  _440
REMARK  178  A    between atoms: _439  and  _442
REMARK  179  A    between atoms: _442  and  _443
REMARK  180  A    between atoms: _449  and  _451
REMARK  181  A    between atoms: _451  and  _452
REMARK  182  A    between atoms: _451  and  _454
REMARK  183  A    between atoms: _454  and  _455
REMARK  184  A    between atoms: _460  and  _461
REMARK  185  A    between atoms: _463  and  _465
REMARK  186  A    between atoms: _465  and  _466
REMARK  187  A    between atoms: _465  and  _468
REMARK  188  A    between atoms: _471  and  _473
REMARK  189  A    between atoms: _473  and  _474
REMARK  190  A    between atoms: _473  and  _476
REMARK  191  A    between atoms: _479  and  _481
REMARK  192  A    between atoms: _481  and  _482
REMARK  193  A    between atoms: _481  and  _484
REMARK  194  A    between atoms: _484  and  _485
REMARK  195  A    between atoms: _487  and  _489
REMARK  196  A    between atoms: _489  and  _490
REMARK  197  A    between atoms: _489  and  _492
REMARK  198  A    between atoms: _492  and  _493
REMARK  199  A    between atoms: _493  and  _494
REMARK  200  A    between atoms: _494  and  _495
REMARK  201  A    between atoms: _504  and  _506
REMARK  202  A    between atoms: _506  and  _507
REMARK  203  A    between atoms: _506  and  _509
REMARK  204  A    between atoms: _509  and  _510
REMARK  205  A    between atoms: _510  and  _511
REMARK  206  A    between atoms: _513  and  _515
REMARK  207  A    between atoms: _515  and  _516
REMARK  208  A    between atoms: _515  and  _518
REMARK  209  A    between atoms: _518  and  _519
REMARK  210  A    between atoms: _522  and  _524
REMARK  211  A    between atoms: _524  and  _525
REMARK  212  A    between atoms: _524  and  _527
REMARK  213  A    between atoms: _527  and  _528
REMARK  214  A    between atoms: _531  and  _533
REMARK  215  A    between atoms: _533  and  _534
REMARK  216  A    between atoms: _533  and  _536
REMARK  217  A    between atoms: _536  and  _537
REMARK  218  A    between atoms: _537  and  _538
REMARK  219  A    between atoms: _538  and  _539
REMARK  220  A    between atoms: _548  and  _550
REMARK  221  A    between atoms: _550  and  _551
REMARK  222  A    between atoms: _550  and  _553
REMARK  223  A    between atoms: _553  and  _554
REMARK  224  A    between atoms: _557  and  _559
REMARK  225  A    between atoms: _559  and  _560
REMARK  226  A    between atoms: _559  and  _562
REMARK  227  A    between atoms: _562  and  _563
REMARK  228  A    between atoms: _569  and  _571
REMARK  229  A    between atoms: _571  and  _572
REMARK  230  A    between atoms: _571  and  _574
REMARK  231  A    between atoms: _574  and  _575
REMARK  232  A    between atoms: _578  and  _580
REMARK  233  A    between atoms: _580  and  _581
REMARK  234  A    between atoms: _584  and  _586
REMARK  235  A    between atoms: _586  and  _587
REMARK  236  A    between atoms: _586  and  _589
REMARK  237  A    between atoms: _589  and  _590
REMARK  238  A    between atoms: _590  and  _591
REMARK  239  A    between atoms: _593  and  _595
REMARK  240  A    between atoms: _595  and  _596
REMARK  241  A    between atoms: _595  and  _598
REMARK  242  A    between atoms: _598  and  _599
REMARK  243  A    between atoms: _599  and  _600
REMARK  244  A    between atoms: _603  and  _605
REMARK  245  A    between atoms: _605  and  _606
REMARK  246  A    between atoms: _605  and  _608
REMARK  247  A    between atoms: _608  and  _609
REMARK  248  A    between atoms: _609  and  _610
REMARK  249  A    between atoms: _610  and  _611
REMARK  250  A    between atoms: _620  and  _622
REMARK  251  A    between atoms: _622  and  _623
REMARK  252  A    between atoms: _622  and  _625
REMARK  253  A    between atoms: _625  and  _626
REMARK  254  A    between atoms: _631  and  _633
REMARK  255  A    between atoms: _633  and  _634
REMARK  256  A    between atoms: _633  and  _636
REMARK  257  A    between atoms: _636  and  _637
REMARK  258  A    between atoms: _637  and  _638
REMARK  259  A    between atoms: _640  and  _642
REMARK  260  A    between atoms: _642  and  _643
REMARK  261  A    between atoms: _642  and  _645
REMARK  262  A    between atoms: _645  and  _646
REMARK  263  A    between atoms: _651  and  _652
REMARK  264  A    between atoms: _654  and  _656
REMARK  265  A    between atoms: _656  and  _657
REMARK  266  A    between atoms: _656  and  _659
REMARK  267  A    between atoms: _661  and  _663
REMARK  268  A    between atoms: _663  and  _664
REMARK  269  A    between atoms: _663  and  _666
REMARK  270  A    between atoms: _666  and  _667
REMARK  271  A    between atoms: _672  and  _673
REMARK  272  A    between atoms: _675  and  _677
REMARK  273  A    between atoms: _677  and  _678
REMARK  274  A    between atoms: _677  and  _680
REMARK  275  A    between atoms: _680  and  _681
REMARK  276  A    between atoms: _684  and  _686
REMARK  277  A    between atoms: _686  and  _687
REMARK  278  A    between atoms: _686  and  _689
REMARK  279  A    between atoms: _692  and  _694
REMARK  280  A    between atoms: _694  and  _695
REMARK  281  A    between atoms: _694  and  _697
REMARK  282  A    between atoms: _697  and  _698
REMARK  283  A    between atoms: _703  and  _704
REMARK  284  A    between atoms: _706  and  _708
REMARK  285  A    between atoms: _708  and  _709
REMARK  286  A    between atoms: _708  and  _711
REMARK  287  A    between atoms: _711  and  _712
REMARK  288  A    between atoms: _718  and  _720
REMARK  289  A    between atoms: _720  and  _721
REMARK  290  A    between atoms: _724  and  _726
REMARK  291  A    between atoms: _726  and  _727
REMARK  292  A    between atoms: _726  and  _729
REMARK  293  A    between atoms: _732  and  _734
REMARK  294  A    between atoms: _734  and  _735
REMARK  295  A    between atoms: _734  and  _737
REMARK  296  A    between atoms: _737  and  _738
REMARK  297  A    between atoms: _741  and  _743
REMARK  298  A    between atoms: _743  and  _744
REMARK  299  A    between atoms: _746  and  _748
REMARK  300  A    between atoms: _748  and  _749
REMARK  301  A    between atoms: _748  and  _751
REMARK  302  A    between atoms: _751  and  _752
REMARK  303  A    between atoms: _752  and  _753
REMARK  304  A    between atoms: _756  and  _758
REMARK  305  A    between atoms: _758  and  _759
REMARK  306  A    between atoms: _758  and  _761
REMARK  307  A    between atoms: _761  and  _762
REMARK                            x       y       z     vdW  Elec       q    Type
REMARK                         _______ _______ _______ _____ _____    ______ ____
ROOT
ATOM      1  CA  ASP A   4     -28.347   3.199  -3.993  0.00  0.00    +0.160 C 
ENDROOT
BRANCH   1   4
ATOM      2  C   VAL A   3     -30.095   1.743  -4.858  0.00  0.00    +0.241 C 
ATOM      3  O   VAL A   3     -29.485   0.716  -4.521  0.00  0.00    -0.273 OA
ATOM      4  N   ASP A   4     -29.637   2.967  -4.617  0.00  0.00    -0.297 N 
ATOM      5  H   ASP A   4     -30.221   3.785  -4.884  0.00  0.00    +0.150 HD
BRANCH   2   6
ATOM      6  CA  VAL A   3     -31.368   1.638  -5.660  0.00  0.00    +0.149 C 
BRANCH   6   8
ATOM      7  C   ALA A   2     -31.122   1.628  -8.073  0.00  0.00    +0.241 C 
ATOM      8  N   VAL A   3     -31.065   0.982  -6.910  0.00  0.00    -0.297 N 
ATOM      9  H   VAL A   3     -30.795  -0.022  -6.902  0.00  0.00    +0.150 HD
ATOM     10  O   ALA A   2     -31.519   2.809  -8.188  0.00  0.00    -0.273 OA
BRANCH   7  11
ATOM     11  CA  ALA A   2     -30.684   0.842  -9.291  0.00  0.00    +0.149 C 
ATOM     12  CB  ALA A   2     -29.493   1.521  -9.974  0.00  0.00    +0.031 C 
BRANCH  11  14
ATOM     13  C   PHE A   1     -32.406  -0.289 -10.541  0.00  0.00    +0.239 C 
ATOM     14  N   ALA A   2     -31.824   0.827 -10.134  0.00  0.00    -0.297 N 
ATOM     15  H   ALA A   2     -32.221   1.736 -10.447  0.00  0.00    +0.150 HD
ATOM     16  O   PHE A   1     -31.910  -1.413 -10.390  0.00  0.00    -0.274 OA
BRANCH  13  17
ATOM     17  CA  PHE A   1     -33.776  -0.100 -11.164  0.00  0.00    +0.149 C 
BRANCH  17  18
ATOM     18  N   PHE A   1     -33.973  -1.274 -11.953  0.00  0.00    -0.238 NA
ATOM     19  H   PHE A   1     -34.079  -2.181 -11.456  0.00  0.00    +0.142 HD
ENDBRANCH  17  18
BRANCH  17  20
ATOM     20  CB  PHE A   1     -34.771  -0.031  -9.988  0.00  0.00    +0.053 C 
BRANCH  20  21
ATOM     21  CG  PHE A   1     -36.183   0.214 -10.358  0.00  0.00    -0.020 A 
ATOM     22  CD2 PHE A   1     -37.192  -0.292  -9.549  0.00  0.00    -0.004 A 
ATOM     23  CE2 PHE A   1     -38.513  -0.055  -9.849  0.00  0.00    -0.000 A 
ATOM     24  CZ  PHE A   1     -38.855   0.724 -10.948  0.00  0.00    -0.000 A 
ATOM     25  CE1 PHE A   1     -37.875   1.267 -11.715  0.00  0.00    -0.000 A 
ATOM     26  CD1 PHE A   1     -36.538   1.004 -11.436  0.00  0.00    -0.004 A 
ENDBRANCH  20  21
ENDBRANCH  17  20
ENDBRANCH  13  17
ENDBRANCH  11  14
ENDBRANCH   7  11
ENDBRANCH   6   8
BRANCH   6  27
ATOM     27  CB  VAL A   3     -32.439   0.870  -4.865  0.00  0.00    +0.027 C 
ATOM     28  CG2 VAL A   3     -32.877   1.721  -3.684  0.00  0.00    +0.002 C 
ATOM     29  CG1 VAL A   3     -33.616   0.557  -5.766  0.00  0.00    +0.002 C 
ENDBRANCH   6  27
ENDBRANCH   2   6
ENDBRANCH   1   4
BRANCH   1  30
ATOM     30  C   ASP A   4     -27.229   2.440  -4.730  0.00  0.00    +0.241 C 
ATOM     31  O   ASP A   4     -26.287   1.978  -4.126  0.00  0.00    -0.273 OA
ATOM     32  N   GLY A   5     -27.347   2.385  -6.055  0.00  0.00    -0.295 N 
ATOM     33  H   GLY A   5     -28.127   2.909  -6.501  0.00  0.00    +0.150 HD
BRANCH  32  34
ATOM     34  CA  GLY A   5     -26.456   1.641  -6.905  0.00  0.00    +0.176 C 
BRANCH  34  35
ATOM     35  C   GLY A   5     -26.672   0.146  -6.995  0.00  0.00    +0.243 C 
ATOM     36  N   GLU A   6     -27.531  -0.399  -6.134  0.00  0.00    -0.297 N 
ATOM     37  H   GLU A   6     -28.004   0.219  -5.444  0.00  0.00    +0.150 HD
ATOM     38  O   GLY A   5     -26.074  -0.496  -7.854  0.00  0.00    -0.273 OA
BRANCH  36  39
ATOM     39  CA  GLU A   6     -27.837  -1.834  -6.118  0.00  0.00    +0.149 C 
BRANCH  39  40
ATOM     40  C   GLU A   6     -28.959  -2.179  -7.099  0.00  0.00    +0.241 C 
ATOM     41  O   GLU A   6     -29.996  -1.509  -7.177  0.00  0.00    -0.273 OA
ATOM     42  N   LEU A   7     -28.738  -3.219  -7.892  0.00  0.00    -0.298 N 
ATOM     43  H   LEU A   7     -27.884  -3.798  -7.759  0.00  0.00    +0.150 HD
BRANCH  42  44
ATOM     44  CA  LEU A   7     -29.682  -3.555  -8.947  0.00  0.00    +0.137 C 
BRANCH  44  45
ATOM     45  C   LEU A   7     -30.837  -4.407  -8.441  0.00  0.00    +0.227 C 
ATOM     46  O   LEU A   7     -30.660  -5.252  -7.569  0.00  0.00    -0.286 OA
ENDBRANCH  44  45
BRANCH  44  47
ATOM     47  CB  LEU A   7     -28.970  -4.245 -10.119  0.00  0.00    +0.028 C 
BRANCH  47  48
ATOM     48  CG  LEU A   7     -28.051  -3.200 -10.811  0.00  0.00    +0.002 C 
ATOM     49  CD2 LEU A   7     -26.937  -3.912 -11.545  0.00  0.00    +0.000 C 
ATOM     50  CD1 LEU A   7     -28.829  -2.256 -11.742  0.00  0.00    +0.000 C 
ENDBRANCH  47  48
ENDBRANCH  44  47
ENDBRANCH  42  44
ENDBRANCH  39  40
BRANCH  39  51
ATOM     51  CB  GLU A   6     -28.179  -2.278  -4.680  0.00  0.00    +0.041 C 
BRANCH  51  52
ATOM     52  CG  GLU A   6     -27.081  -1.928  -3.698  0.00  0.00    +0.116 C 
BRANCH  52  53
ATOM     53  CD  GLU A   6     -25.846  -2.820  -3.919  0.00  0.00    +0.365 C 
ATOM     54  OE2 GLU A   6     -25.957  -4.038  -3.656  0.00  0.00    -0.246 OA
ATOM     55  OE1 GLU A   6     -24.780  -2.325  -4.393  0.00  0.00    -0.246 OA
ENDBRANCH  52  53
ENDBRANCH  51  52
ENDBRANCH  39  51
ENDBRANCH  36  39
ENDBRANCH  34  35
ENDBRANCH  32  34
ENDBRANCH   1  30
BRANCH   1  56
ATOM     56  CB  ASP A   4     -28.358   2.901  -2.502  0.00  0.00    +0.143 C 
BRANCH  56  57
ATOM     57  CG  ASP A   4     -29.456   3.651  -1.755  0.00  0.00    +0.367 C 
ATOM     58  OD2 ASP A   4     -29.861   3.165  -0.630  0.00  0.00    -0.246 OA
ATOM     59  OD1 ASP A   4     -29.954   4.699  -2.278  0.00  0.00    -0.246 OA
ENDBRANCH  56  57
ENDBRANCH   1  56
TORSDOF 24
REMARK  Name = ../refined-set-2016/4v24/4v24_pocket.pdb
REMARK  307 active torsions:
REMARK  status: ('A' for Active; 'I' for Inactive)
REMARK    1  A    between atoms: _1  and  _3
REMARK    2  A    between atoms: _3  and  _4
REMARK    3  A    between atoms: _6  and  _8
REMARK    4  A    between atoms: _8  and  _9
REMARK    5  A    between atoms: _8  and  _11
REMARK    6  A    between atoms: _11  and  _12
REMARK    7  A    between atoms: _15  and  _17
REMARK    8  A    between atoms: _17  and  _18
REMARK    9  A    between atoms: _20  and  _22
REMARK   10  A    between atoms: _22  and  _23
REMARK   11  A    between atoms: _25  and  _27
REMARK   12  A    between atoms: _27  and  _28
REMARK   13  A    between atoms: _27  and  _30
REMARK   14  A    between atoms: _30  and  _31
REMARK   15  A    between atoms: _36  and  _38
REMARK   16  A    between atoms: _38  and  _39
REMARK   17  A    between atoms: _42  and  _44
REMARK   18  A    between atoms: _44  and  _45
REMARK   19  A    between atoms: _44  and  _47
REMARK   20  A    between atoms: _47  and  _48
REMARK   21  A    between atoms: _51  and  _53
REMARK   22  A    between atoms: _53  and  _54
REMARK   23  A    between atoms: _53  and  _56
REMARK   24  A    between atoms: _56  and  _57
REMARK   25  A    between atoms: _60  and  _62
REMARK   26  A    between atoms: _62  and  _63
REMARK   27  A    between atoms: _62  and  _65
REMARK   28  A    between atoms: _65  and  _66
REMARK   29  A    between atoms: _68  and  _70
REMARK   30  A    between atoms: _70  and  _71
REMARK   31  A    between atoms: _70  and  _73
REMARK   32  A    between atoms: _73  and  _74
REMARK   33  A    between atoms: _77  and  _79
REMARK   34  A    between atoms: _79  and  _80
REMARK   35  A    between atoms: _83  and  _85
REMARK   36  A    between atoms: _85  and  _86
REMARK   37  A    between atoms: _85  and  _88
REMARK   38  A    between atoms: _88  and  _89
REMARK   39  A    between atoms: _99  and  _101
REMARK   40  A    between atoms: _101  and  _102
REMARK   41  A    between atoms: _101  and  _104
REMARK   42  A    between atoms: _104  and  _105
REMARK   43  A    between atoms: _111  and  _113
REMARK   44  A    between atoms: _113  and  _114
REMARK   45  A    between atoms: _113  and  _116
REMARK   46  A    between atoms: _116  and  _117
REMARK   47  A    between atoms: _120  and  _122
REMARK   48  A    between atoms: _122  and  _123
REMARK   49  A    between atoms: _126  and  _128
REMARK   50  A    between atoms: _128  and  _129
REMARK   51  A    between atoms: _128  and  _131
REMARK   52  A    between atoms: _131  and  _132
REMARK   53  A    between atoms: _135  and  _137
REMARK   54  A    between atoms: _137  and  _138
REMARK   55  A    between atoms: _137  and  _140
REMARK   56  A    between atoms: _143  and  _145
REMARK   57  A    between atoms: _145  and  _146
REMARK   58  A    between atoms: _145  and  _148
REMARK   59  A    between atoms: _148  and  _149
REMARK   60  A    between atoms: _152  and  _154
REMARK   61  A    between atoms: _154  and  _155
REMARK   62  A    between atoms: _154  and  _157
REMARK   63  A    between atoms: _157  and  _158
REMARK   64  A    between atoms: _161  and  _163
REMARK   65  A    between atoms: _163  and  _164
REMARK   66  A    between atoms: _163  and  _166
REMARK   67  A    between atoms: _166  and  _167
REMARK   68  A    between atoms: _169  and  _171
REMARK   69  A    between atoms: _171  and  _172
REMARK   70  A    between atoms: _171  and  _174
REMARK   71  A    between atoms: _174  and  _175
REMARK   72  A    between atoms: _175  and  _176
REMARK   73  A    between atoms: _179  and  _181
REMARK   74  A    between atoms: _181  and  _182
REMARK   75  A    between atoms: _181  and  _184
REMARK   76  A    between atoms: _184  and  _185
REMARK   77  A    between atoms: _185  and  _186
REMARK   78  A    between atoms: _186  and  _187
REMARK   79  A    between atoms: _196  and  _198
REMARK   80  A    between atoms: _198  and  _199
REMARK   81  A    between atoms: _198  and  _201
REMARK   82  A    between atoms: _201  and  _202
REMARK   83  A    between atoms: _208  and  _210
REMARK   84  A    between atoms: _210  and  _211
REMARK   85  A    between atoms: _210  and  _213
REMARK   86  A    between atoms: _213  and  _214
REMARK   87  A    between atoms: _217  and  _219
REMARK   88  A    between atoms: _219  and  _220
REMARK   89  A    between atoms: _222  and  _224
REMARK   90  A    between atoms: _224  and  _225
REMARK   91  A    between atoms: _224  and  _227
REMARK   92  A    between atoms: _227  and  _228
REMARK   93  A    between atoms: _231  and  _233
REMARK   94  A    between atoms: _233  and  _234
REMARK   95  A    between atoms: _233  and  _236
REMARK   96  A    between atoms: _236  and  _237
REMARK   97  A    between atoms: _243  and  _245
REMARK   98  A    between atoms: _245  and  _246
REMARK   99  A    between atoms: _245  and  _248
REMARK  100  A    between atoms: _248  and  _249
REMARK  101  A    between atoms: _249  and  _250
REMARK  102  A    between atoms: _250  and  _251
REMARK  103  A    between atoms: _260  and  _262
REMARK  104  A    between atoms: _262  and  _263
REMARK  105  A    between atoms: _262  and  _265
REMARK  106  A    between atoms: _265  and  _266
REMARK  107  A    between atoms: _269  and  _271
REMARK  108  A    between atoms: _271  and  _272
REMARK  109  A    between atoms: _271  and  _274
REMARK  110  A    between atoms: _274  and  _275
REMARK  111  A    between atoms: _278  and  _280
REMARK  112  A    between atoms: _280  and  _281
REMARK  113  A    between atoms: _280  and  _283
REMARK  114  A    between atoms: _286  and  _288
REMARK  115  A    between atoms: _288  and  _289
REMARK  116  A    between atoms: _288  and  _291
REMARK  117  A    between atoms: _291  and  _292
REMARK  118  A    between atoms: _295  and  _297
REMARK  119  A    between atoms: _297  and  _298
REMARK  120  A    between atoms: _297  and  _300
REMARK  121  A    between atoms: _303  and  _305
REMARK  122  A    between atoms: _305  and  _306
REMARK  123  A    between atoms: _305  and  _308
REMARK  124  A    between atoms: _308  and  _309
REMARK  125  A    between atoms: _312  and  _314
REMARK  126  A    between atoms: _314  and  _315
REMARK  127  A    between atoms: _318  and  _320
REMARK  128  A    between atoms: _320  and  _321
REMARK  129  A    between atoms: _320  and  _323
REMARK  130  A    between atoms: _323  and  _324
REMARK  131  A    between atoms: _327  and  _329
REMARK  132  A    between atoms: _329  and  _330
REMARK  133  A    between atoms: _329  and  _332
REMARK  134  A    between atoms: _332  and  _333
REMARK  135  A    between atoms: _335  and  _337
REMARK  136  A    between atoms: _337  and  _338
REMARK  137  A    between atoms: _337  and  _340
REMARK  138  A    between atoms: _340  and  _341
REMARK  139  A    between atoms: _346  and  _348
REMARK  140  A    between atoms: _348  and  _349
REMARK  141  A    between atoms: _348  and  _351
REMARK  142  A    between atoms: _351  and  _352
REMARK  143  A    between atoms: _355  and  _357
REMARK  144  A    between atoms: _357  and  _358
REMARK  145  A    between atoms: _360  and  _362
REMARK  146  A    between atoms: _362  and  _363
REMARK  147  A    between atoms: _362  and  _365
REMARK  148  A    between atoms: _365  and  _366
REMARK  149  A    between atoms: _368  and  _370
REMARK  150  A    between atoms: _370  and  _371
REMARK  151  A    between atoms: _370  and  _373
REMARK  152  A    between atoms: _373  and  _374
REMARK  153  A    between atoms: _374  and  _375
REMARK  154  A    between atoms: _377  and  _379
REMARK  155  A    between atoms: _379  and  _380
REMARK  156  A    between atoms: _379  and  _382
REMARK  157  A    between atoms: _382  and  _383
REMARK  158  A    between atoms: _389  and  _391
REMARK  159  A    between atoms: _391  and  _392
REMARK  160  A    between atoms: _395  and  _397
REMARK  161  A    between atoms: _397  and  _398
REMARK  162  A    between atoms: _402  and  _403
REMARK  163  A    between atoms: _408  and  _410
REMARK  164  A    between atoms: _410  and  _411
REMARK  165  A    between atoms: _410  and  _413
REMARK  166  A    between atoms: _413  and  _414
REMARK  167  A    between atoms: _414  and  _415
REMARK  168  A    between atoms: _417  and  _419
REMARK  169  A    between atoms: _419  and  _420
REMARK  170  A    between atoms: _419  and  _422
REMARK  171  A    between atoms: _422  and  _423
REMARK  172  A    between atoms: _428  and  _430
REMARK  173  A    between atoms: _430  and  _431
REMARK  174  A    between atoms: _430  and  _433
REMARK  175  A    between atoms: _433  and  _434
REMARK  176  A    between atoms: _437  and  _439
REMARK  177  A    between atoms: _439  and  _440
REMARK  178  A    between atoms: _439  and  _442
REMARK  179  A    between atoms: _442  and  _443
REMARK  180  A    between atoms: _449  and  _451
REMARK  181  A    between atoms: _451  and  _452
REMARK  182  A    between atoms: _451  and  _454
REMARK  183  A    between atoms: _454  and  _455
REMARK  184  A    between atoms: _460  and  _461
REMARK  185  A    between atoms: _463  and  _465
REMARK  186  A    between atoms: _465  and  _466
REMARK  187  A    between atoms: _465  and  _468
REMARK  188  A    between atoms: _471  and  _473
REMARK  189  A    between atoms: _473  and  _474
REMARK  190  A    between atoms: _473  and  _476
REMARK  191  A    between atoms: _479  and  _481
REMARK  192  A    between atoms: _481  and  _482
REMARK  193  A    between atoms: _481  and  _484
REMARK  194  A    between atoms: _484  and  _485
REMARK  195  A    between atoms: _487  and  _489
REMARK  196  A    between atoms: _489  and  _490
REMARK  197  A    between atoms: _489  and  _492
REMARK  198  A    between atoms: _492  and  _493
REMARK  199  A    between atoms: _493  and  _494
REMARK  200  A    between atoms: _494  and  _495
REMARK  201  A    between atoms: _504  and  _506
REMARK  202  A    between atoms: _506  and  _507
REMARK  203  A    between atoms: _506  and  _509
REMARK  204  A    between atoms: _509  and  _510
REMARK  205  A    between atoms: _510  and  _511
REMARK  206  A    between atoms: _513  and  _515
REMARK  207  A    between atoms: _515  and  _516
REMARK  208  A    between atoms: _515  and  _518
REMARK  209  A    between atoms: _518  and  _519
REMARK  210  A    between atoms: _522  and  _524
REMARK  211  A    between atoms: _524  and  _525
REMARK  212  A    between atoms: _524  and  _527
REMARK  213  A    between atoms: _527  and  _528
REMARK  214  A    between atoms: _531  and  _533
REMARK  215  A    between atoms: _533  and  _534
REMARK  216  A    between atoms: _533  and  _536
REMARK  217  A    between atoms: _536  and  _537
REMARK  218  A    between atoms: _537  and  _538
REMARK  219  A    between atoms: _538  and  _539
REMARK  220  A    between atoms: _548  and  _550
REMARK  221  A    between atoms: _550  and  _551
REMARK  222  A    between atoms: _550  and  _553
REMARK  223  A    between atoms: _553  and  _554
REMARK  224  A    between atoms: _557  and  _559
REMARK  225  A    between atoms: _559  and  _560
REMARK  226  A    between atoms: _559  and  _562
REMARK  227  A    between atoms: _562  and  _563
REMARK  228  A    between atoms: _569  and  _571
REMARK  229  A    between atoms: _571  and  _572
REMARK  230  A    between atoms: _571  and  _574
REMARK  231  A    between atoms: _574  and  _575
REMARK  232  A    between atoms: _578  and  _580
REMARK  233  A    between atoms: _580  and  _581
REMARK  234  A    between atoms: _584  and  _586
REMARK  235  A    between atoms: _586  and  _587
REMARK  236  A    between atoms: _586  and  _589
REMARK  237  A    between atoms: _589  and  _590
REMARK  238  A    between atoms: _590  and  _591
REMARK  239  A    between atoms: _593  and  _595
REMARK  240  A    between atoms: _595  and  _596
REMARK  241  A    between atoms: _595  and  _598
REMARK  242  A    between atoms: _598  and  _599
REMARK  243  A    between atoms: _599  and  _600
REMARK  244  A    between atoms: _603  and  _605
REMARK  245  A    between atoms: _605  and  _606
REMARK  246  A    between atoms: _605  and  _608
REMARK  247  A    between atoms: _608  and  _609
REMARK  248  A    between atoms: _609  and  _610
REMARK  249  A    between atoms: _610  and  _611
REMARK  250  A    between atoms: _620  and  _622
REMARK  251  A    between atoms: _622  and  _623
REMARK  252  A    between atoms: _622  and  _625
REMARK  253  A    between atoms: _625  and  _626
REMARK  254  A    between atoms: _631  and  _633
REMARK  255  A    between atoms: _633  and  _634
REMARK  256  A    between atoms: _633  and  _636
REMARK  257  A    between atoms: _636  and  _637
REMARK  258  A    between atoms: _637  and  _638
REMARK  259  A    between atoms: _640  and  _642
REMARK  260  A    between atoms: _642  and  _643
REMARK  261  A    between atoms: _642  and  _645
REMARK  262  A    between atoms: _645  and  _646
REMARK  263  A    between atoms: _651  and  _652
REMARK  264  A    between atoms: _654  and  _656
REMARK  265  A    between atoms: _656  and  _657
REMARK  266  A    between atoms: _656  and  _659
REMARK  267  A    between atoms: _661  and  _663
REMARK  268  A    between atoms: _663  and  _664
REMARK  269  A    between atoms: _663  and  _666
REMARK  270  A    between atoms: _666  and  _667
REMARK  271  A    between atoms: _672  and  _673
REMARK  272  A    between atoms: _675  and  _677
REMARK  273  A    between atoms: _677  and  _678
REMARK  274  A    between atoms: _677  and  _680
REMARK  275  A    between atoms: _680  and  _681
REMARK  276  A    between atoms: _684  and  _686
REMARK  277  A    between atoms: _686  and  _687
REMARK  278  A    between atoms: _686  and  _689
REMARK  279  A    between atoms: _692  and  _694
REMARK  280  A    between atoms: _694  and  _695
REMARK  281  A    between atoms: _694  and  _697
REMARK  282  A    between atoms: _697  and  _698
REMARK  283  A    between atoms: _703  and  _704
REMARK  284  A    between atoms: _706  and  _708
REMARK  285  A    between atoms: _708  and  _709
REMARK  286  A    between atoms: _708  and  _711
REMARK  287  A    between atoms: _711  and  _712
REMARK  288  A    between atoms: _718  and  _720
REMARK  289  A    between atoms: _720  and  _721
REMARK  290  A    between atoms: _724  and  _726
REMARK  291  A    between atoms: _726  and  _727
REMARK  292  A    between atoms: _726  and  _729
REMARK  293  A    between atoms: _732  and  _734
REMARK  294  A    between atoms: _734  and  _735
REMARK  295  A    between atoms: _734  and  _737
REMARK  296  A    between atoms: _737  and  _738
REMARK  297  A    between atoms: _741  and  _743
REMARK  298  A    between atoms: _743  and  _744
REMARK  299  A    between atoms: _746  and  _748
REMARK  300  A    between atoms: _748  and  _749
REMARK  301  A    between atoms: _748  and  _751
REMARK  302  A    between atoms: _751  and  _752
REMARK  303  A    between atoms: _752  and  _753
REMARK  304  A    between atoms: _756  and  _758
REMARK  305  A    between atoms: _758  and  _759
REMARK  306  A    between atoms: _758  and  _761
REMARK  307  A    between atoms: _761  and  _762
REMARK                            x       y       z     vdW  Elec       q    Type
REMARK                         _______ _______ _______ _____ _____    ______ ____
ROOT
ATOM      1  O   HOH     1     -22.622   1.480  -7.004  0.00  0.00    +0.000 OA
ENDROOT
TORSDOF 0
REMARK  Name = ../refined-set-2016/4v24/4v24_pocket.pdb
REMARK  307 active torsions:
REMARK  status: ('A' for Active; 'I' for Inactive)
REMARK    1  A    between atoms: _1  and  _3
REMARK    2  A    between atoms: _3  and  _4
REMARK    3  A    between atoms: _6  and  _8
REMARK    4  A    between atoms: _8  and  _9
REMARK    5  A    between atoms: _8  and  _11
REMARK    6  A    between atoms: _11  and  _12
REMARK    7  A    between atoms: _15  and  _17
REMARK    8  A    between atoms: _17  and  _18
REMARK    9  A    between atoms: _20  and  _22
REMARK   10  A    between atoms: _22  and  _23
REMARK   11  A    between atoms: _25  and  _27
REMARK   12  A    between atoms: _27  and  _28
REMARK   13  A    between atoms: _27  and  _30
REMARK   14  A    between atoms: _30  and  _31
REMARK   15  A    between atoms: _36  and  _38
REMARK   16  A    between atoms: _38  and  _39
REMARK   17  A    between atoms: _42  and  _44
REMARK   18  A    between atoms: _44  and  _45
REMARK   19  A    between atoms: _44  and  _47
REMARK   20  A    between atoms: _47  and  _48
REMARK   21  A    between atoms: _51  and  _53
REMARK   22  A    between atoms: _53  and  _54
REMARK   23  A    between atoms: _53  and  _56
REMARK   24  A    between atoms: _56  and  _57
REMARK   25  A    between atoms: _60  and  _62
REMARK   26  A    between atoms: _62  and  _63
REMARK   27  A    between atoms: _62  and  _65
REMARK   28  A    between atoms: _65  and  _66
REMARK   29  A    between atoms: _68  and  _70
REMARK   30  A    between atoms: _70  and  _71
REMARK   31  A    between atoms: _70  and  _73
REMARK   32  A    between atoms: _73  and  _74
REMARK   33  A    between atoms: _77  and  _79
REMARK   34  A    between atoms: _79  and  _80
REMARK   35  A    between atoms: _83  and  _85
REMARK   36  A    between atoms: _85  and  _86
REMARK   37  A    between atoms: _85  and  _88
REMARK   38  A    between atoms: _88  and  _89
REMARK   39  A    between atoms: _99  and  _101
REMARK   40  A    between atoms: _101  and  _102
REMARK   41  A    between atoms: _101  and  _104
REMARK   42  A    between atoms: _104  and  _105
REMARK   43  A    between atoms: _111  and  _113
REMARK   44  A    between atoms: _113  and  _114
REMARK   45  A    between atoms: _113  and  _116
REMARK   46  A    between atoms: _116  and  _117
REMARK   47  A    between atoms: _120  and  _122
REMARK   48  A    between atoms: _122  and  _123
REMARK   49  A    between atoms: _126  and  _128
REMARK   50  A    between atoms: _128  and  _129
REMARK   51  A    between atoms: _128  and  _131
REMARK   52  A    between atoms: _131  and  _132
REMARK   53  A    between atoms: _135  and  _137
REMARK   54  A    between atoms: _137  and  _138
REMARK   55  A    between atoms: _137  and  _140
REMARK   56  A    between atoms: _143  and  _145
REMARK   57  A    between atoms: _145  and  _146
REMARK   58  A    between atoms: _145  and  _148
REMARK   59  A    between atoms: _148  and  _149
REMARK   60  A    between atoms: _152  and  _154
REMARK   61  A    between atoms: _154  and  _155
REMARK   62  A    between atoms: _154  and  _157
REMARK   63  A    between atoms: _157  and  _158
REMARK   64  A    between atoms: _161  and  _163
REMARK   65  A    between atoms: _163  and  _164
REMARK   66  A    between atoms: _163  and  _166
REMARK   67  A    between atoms: _166  and  _167
REMARK   68  A    between atoms: _169  and  _171
REMARK   69  A    between atoms: _171  and  _172
REMARK   70  A    between atoms: _171  and  _174
REMARK   71  A    between atoms: _174  and  _175
REMARK   72  A    between atoms: _175  and  _176
REMARK   73  A    between atoms: _179  and  _181
REMARK   74  A    between atoms: _181  and  _182
REMARK   75  A    between atoms: _181  and  _184
REMARK   76  A    between atoms: _184  and  _185
REMARK   77  A    between atoms: _185  and  _186
REMARK   78  A    between atoms: _186  and  _187
REMARK   79  A    between atoms: _196  and  _198
REMARK   80  A    between atoms: _198  and  _199
REMARK   81  A    between atoms: _198  and  _201
REMARK   82  A    between atoms: _201  and  _202
REMARK   83  A    between atoms: _208  and  _210
REMARK   84  A    between atoms: _210  and  _211
REMARK   85  A    between atoms: _210  and  _213
REMARK   86  A    between atoms: _213  and  _214
REMARK   87  A    between atoms: _217  and  _219
REMARK   88  A    between atoms: _219  and  _220
REMARK   89  A    between atoms: _222  and  _224
REMARK   90  A    between atoms: _224  and  _225
REMARK   91  A    between atoms: _224  and  _227
REMARK   92  A    between atoms: _227  and  _228
REMARK   93  A    between atoms: _231  and  _233
REMARK   94  A    between atoms: _233  and  _234
REMARK   95  A    between atoms: _233  and  _236
REMARK   96  A    between atoms: _236  and  _237
REMARK   97  A    between atoms: _243  and  _245
REMARK   98  A    between atoms: _245  and  _246
REMARK   99  A    between atoms: _245  and  _248
REMARK  100  A    between atoms: _248  and  _249
REMARK  101  A    between atoms: _249  and  _250
REMARK  102  A    between atoms: _250  and  _251
REMARK  103  A    between atoms: _260  and  _262
REMARK  104  A    between atoms: _262  and  _263
REMARK  105  A    between atoms: _262  and  _265
REMARK  106  A    between atoms: _265  and  _266
REMARK  107  A    between atoms: _269  and  _271
REMARK  108  A    between atoms: _271  and  _272
REMARK  109  A    between atoms: _271  and  _274
REMARK  110  A    between atoms: _274  and  _275
REMARK  111  A    between atoms: _278  and  _280
REMARK  112  A    between atoms: _280  and  _281
REMARK  113  A    between atoms: _280  and  _283
REMARK  114  A    between atoms: _286  and  _288
REMARK  115  A    between atoms: _288  and  _289
REMARK  116  A    between atoms: _288  and  _291
REMARK  117  A    between atoms: _291  and  _292
REMARK  118  A    between atoms: _295  and  _297
REMARK  119  A    between atoms: _297  and  _298
REMARK  120  A    between atoms: _297  and  _300
REMARK  121  A    between atoms: _303  and  _305
REMARK  122  A    between atoms: _305  and  _306
REMARK  123  A    between atoms: _305  and  _308
REMARK  124  A    between atoms: _308  and  _309
REMARK  125  A    between atoms: _312  and  _314
REMARK  126  A    between atoms: _314  and  _315
REMARK  127  A    between atoms: _318  and  _320
REMARK  128  A    between atoms: _320  and  _321
REMARK  129  A    between atoms: _320  and  _323
REMARK  130  A    between atoms: _323  and  _324
REMARK  131  A    between atoms: _327  and  _329
REMARK  132  A    between atoms: _329  and  _330
REMARK  133  A    between atoms: _329  and  _332
REMARK  134  A    between atoms: _332  and  _333
REMARK  135  A    between atoms: _335  and  _337
REMARK  136  A    between atoms: _337  and  _338
REMARK  137  A    between atoms: _337  and  _340
REMARK  138  A    between atoms: _340  and  _341
REMARK  139  A    between atoms: _346  and  _348
REMARK  140  A    between atoms: _348  and  _349
REMARK  141  A    between atoms: _348  and  _351
REMARK  142  A    between atoms: _351  and  _352
REMARK  143  A    between atoms: _355  and  _357
REMARK  144  A    between atoms: _357  and  _358
REMARK  145  A    between atoms: _360  and  _362
REMARK  146  A    between atoms: _362  and  _363
REMARK  147  A    between atoms: _362  and  _365
REMARK  148  A    between atoms: _365  and  _366
REMARK  149  A    between atoms: _368  and  _370
REMARK  150  A    between atoms: _370  and  _371
REMARK  151  A    between atoms: _370  and  _373
REMARK  152  A    between atoms: _373  and  _374
REMARK  153  A    between atoms: _374  and  _375
REMARK  154  A    between atoms: _377  and  _379
REMARK  155  A    between atoms: _379  and  _380
REMARK  156  A    between atoms: _379  and  _382
REMARK  157  A    between atoms: _382  and  _383
REMARK  158  A    between atoms: _389  and  _391
REMARK  159  A    between atoms: _391  and  _392
REMARK  160  A    between atoms: _395  and  _397
REMARK  161  A    between atoms: _397  and  _398
REMARK  162  A    between atoms: _402  and  _403
REMARK  163  A    between atoms: _408  and  _410
REMARK  164  A    between atoms: _410  and  _411
REMARK  165  A    between atoms: _410  and  _413
REMARK  166  A    between atoms: _413  and  _414
REMARK  167  A    between atoms: _414  and  _415
REMARK  168  A    between atoms: _417  and  _419
REMARK  169  A    between atoms: _419  and  _420
REMARK  170  A    between atoms: _419  and  _422
REMARK  171  A    between atoms: _422  and  _423
REMARK  172  A    between atoms: _428  and  _430
REMARK  173  A    between atoms: _430  and  _431
REMARK  174  A    between atoms: _430  and  _433
REMARK  175  A    between atoms: _433  and  _434
REMARK  176  A    between atoms: _437  and  _439
REMARK  177  A    between atoms: _439  and  _440
REMARK  178  A    between atoms: _439  and  _442
REMARK  179  A    between atoms: _442  and  _443
REMARK  180  A    between atoms: _449  and  _451
REMARK  181  A    between atoms: _451  and  _452
REMARK  182  A    between atoms: _451  and  _454
REMARK  183  A    between atoms: _454  and  _455
REMARK  184  A    between atoms: _460  and  _461
REMARK  185  A    between atoms: _463  and  _465
REMARK  186  A    between atoms: _465  and  _466
REMARK  187  A    between atoms: _465  and  _468
REMARK  188  A    between atoms: _471  and  _473
REMARK  189  A    between atoms: _473  and  _474
REMARK  190  A    between atoms: _473  and  _476
REMARK  191  A    between atoms: _479  and  _481
REMARK  192  A    between atoms: _481  and  _482
REMARK  193  A    between atoms: _481  and  _484
REMARK  194  A    between atoms: _484  and  _485
REMARK  195  A    between atoms: _487  and  _489
REMARK  196  A    between atoms: _489  and  _490
REMARK  197  A    between atoms: _489  and  _492
REMARK  198  A    between atoms: _492  and  _493
REMARK  199  A    between atoms: _493  and  _494
REMARK  200  A    between atoms: _494  and  _495
REMARK  201  A    between atoms: _504  and  _506
REMARK  202  A    between atoms: _506  and  _507
REMARK  203  A    between atoms: _506  and  _509
REMARK  204  A    between atoms: _509  and  _510
REMARK  205  A    between atoms: _510  and  _511
REMARK  206  A    between atoms: _513  and  _515
REMARK  207  A    between atoms: _515  and  _516
REMARK  208  A    between atoms: _515  and  _518
REMARK  209  A    between atoms: _518  and  _519
REMARK  210  A    between atoms: _522  and  _524
REMARK  211  A    between atoms: _524  and  _525
REMARK  212  A    between atoms: _524  and  _527
REMARK  213  A    between atoms: _527  and  _528
REMARK  214  A    between atoms: _531  and  _533
REMARK  215  A    between atoms: _533  and  _534
REMARK  216  A    between atoms: _533  and  _536
REMARK  217  A    between atoms: _536  and  _537
REMARK  218  A    between atoms: _537  and  _538
REMARK  219  A    between atoms: _538  and  _539
REMARK  220  A    between atoms: _548  and  _550
REMARK  221  A    between atoms: _550  and  _551
REMARK  222  A    between atoms: _550  and  _553
REMARK  223  A    between atoms: _553  and  _554
REMARK  224  A    between atoms: _557  and  _559
REMARK  225  A    between atoms: _559  and  _560
REMARK  226  A    between atoms: _559  and  _562
REMARK  227  A    between atoms: _562  and  _563
REMARK  228  A    between atoms: _569  and  _571
REMARK  229  A    between atoms: _571  and  _572
REMARK  230  A    between atoms: _571  and  _574
REMARK  231  A    between atoms: _574  and  _575
REMARK  232  A    between atoms: _578  and  _580
REMARK  233  A    between atoms: _580  and  _581
REMARK  234  A    between atoms: _584  and  _586
REMARK  235  A    between atoms: _586  and  _587
REMARK  236  A    between atoms: _586  and  _589
REMARK  237  A    between atoms: _589  and  _590
REMARK  238  A    between atoms: _590  and  _591
REMARK  239  A    between atoms: _593  and  _595
REMARK  240  A    between atoms: _595  and  _596
REMARK  241  A    between atoms: _595  and  _598
REMARK  242  A    between atoms: _598  and  _599
REMARK  243  A    between atoms: _599  and  _600
REMARK  244  A    between atoms: _603  and  _605
REMARK  245  A    between atoms: _605  and  _606
REMARK  246  A    between atoms: _605  and  _608
REMARK  247  A    between atoms: _608  and  _609
REMARK  248  A    between atoms: _609  and  _610
REMARK  249  A    between atoms: _610  and  _611
REMARK  250  A    between atoms: _620  and  _622
REMARK  251  A    between atoms: _622  and  _623
REMARK  252  A    between atoms: _622  and  _625
REMARK  253  A    between atoms: _625  and  _626
REMARK  254  A    between atoms: _631  and  _633
REMARK  255  A    between atoms: _633  and  _634
REMARK  256  A    between atoms: _633  and  _636
REMARK  257  A    between atoms: _636  and  _637
REMARK  258  A    between atoms: _637  and  _638
REMARK  259  A    between atoms: _640  and  _642
REMARK  260  A    between atoms: _642  and  _643
REMARK  261  A    between atoms: _642  and  _645
REMARK  262  A    between atoms: _645  and  _646
REMARK  263  A    between atoms: _651  and  _652
REMARK  264  A    between atoms: _654  and  _656
REMARK  265  A    between atoms: _656  and  _657
REMARK  266  A    between atoms: _656  and  _659
REMARK  267  A    between atoms: _661  and  _663
REMARK  268  A    between atoms: _663  and  _664
REMARK  269  A    between atoms: _663  and  _666
REMARK  270  A    between atoms: _666  and  _667
REMARK  271  A    between atoms: _672  and  _673
REMARK  272  A    between atoms: _675  and  _677
REMARK  273  A    between atoms: _677  and  _678
REMARK  274  A    between atoms: _677  and  _680
REMARK  275  A    between atoms: _680  and  _681
REMARK  276  A    between atoms: _684  and  _686
REMARK  277  A    between atoms: _686  and  _687
REMARK  278  A    between atoms: _686  and  _689
REMARK  279  A    between atoms: _692  and  _694
REMARK  280  A    between atoms: _694  and  _695
REMARK  281  A    between atoms: _694  and  _697
REMARK  282  A    between atoms: _697  and  _698
REMARK  283  A    between atoms: _703  and  _704
REMARK  284  A    between atoms: _706  and  _708
REMARK  285  A    between atoms: _708  and  _709
REMARK  286  A    between atoms: _708  and  _711
REMARK  287  A    between atoms: _711  and  _712
REMARK  288  A    between atoms: _718  and  _720
REMARK  289  A    between atoms: _720  and  _721
REMARK  290  A    between atoms: _724  and  _726
REMARK  291  A    between atoms: _726  and  _727
REMARK  292  A    between atoms: _726  and  _729
REMARK  293  A    between atoms: _732  and  _734
REMARK  294  A    between atoms: _734  and  _735
REMARK  295  A    between atoms: _734  and  _737
REMARK  296  A    between atoms: _737  and  _738
REMARK  297  A    between atoms: _741  and  _743
REMARK  298  A    between atoms: _743  and  _744
REMARK  299  A    between atoms: _746  and  _748
REMARK  300  A    between atoms: _748  and  _749
REMARK  301  A    between atoms: _748  and  _751
REMARK  302  A    between atoms: _751  and  _752
REMARK  303  A    between atoms: _752  and  _753
REMARK  304  A    between atoms: _756  and  _758
REMARK  305  A    between atoms: _758  and  _759
REMARK  306  A    between atoms: _758  and  _761
REMARK  307  A    between atoms: _761  and  _762
REMARK                            x       y       z     vdW  Elec       q    Type
REMARK                         _______ _______ _______ _____ _____    ______ ____
ROOT
ATOM      1  O   HOH     1     -24.637   4.877   0.039  0.00  0.00    +0.000 OA
ENDROOT
TORSDOF 0
REMARK  Name = ../refined-set-2016/4v24/4v24_pocket.pdb
REMARK  307 active torsions:
REMARK  status: ('A' for Active; 'I' for Inactive)
REMARK    1  A    between atoms: _1  and  _3
REMARK    2  A    between atoms: _3  and  _4
REMARK    3  A    between atoms: _6  and  _8
REMARK    4  A    between atoms: _8  and  _9
REMARK    5  A    between atoms: _8  and  _11
REMARK    6  A    between atoms: _11  and  _12
REMARK    7  A    between atoms: _15  and  _17
REMARK    8  A    between atoms: _17  and  _18
REMARK    9  A    between atoms: _20  and  _22
REMARK   10  A    between atoms: _22  and  _23
REMARK   11  A    between atoms: _25  and  _27
REMARK   12  A    between atoms: _27  and  _28
REMARK   13  A    between atoms: _27  and  _30
REMARK   14  A    between atoms: _30  and  _31
REMARK   15  A    between atoms: _36  and  _38
REMARK   16  A    between atoms: _38  and  _39
REMARK   17  A    between atoms: _42  and  _44
REMARK   18  A    between atoms: _44  and  _45
REMARK   19  A    between atoms: _44  and  _47
REMARK   20  A    between atoms: _47  and  _48
REMARK   21  A    between atoms: _51  and  _53
REMARK   22  A    between atoms: _53  and  _54
REMARK   23  A    between atoms: _53  and  _56
REMARK   24  A    between atoms: _56  and  _57
REMARK   25  A    between atoms: _60  and  _62
REMARK   26  A    between atoms: _62  and  _63
REMARK   27  A    between atoms: _62  and  _65
REMARK   28  A    between atoms: _65  and  _66
REMARK   29  A    between atoms: _68  and  _70
REMARK   30  A    between atoms: _70  and  _71
REMARK   31  A    between atoms: _70  and  _73
REMARK   32  A    between atoms: _73  and  _74
REMARK   33  A    between atoms: _77  and  _79
REMARK   34  A    between atoms: _79  and  _80
REMARK   35  A    between atoms: _83  and  _85
REMARK   36  A    between atoms: _85  and  _86
REMARK   37  A    between atoms: _85  and  _88
REMARK   38  A    between atoms: _88  and  _89
REMARK   39  A    between atoms: _99  and  _101
REMARK   40  A    between atoms: _101  and  _102
REMARK   41  A    between atoms: _101  and  _104
REMARK   42  A    between atoms: _104  and  _105
REMARK   43  A    between atoms: _111  and  _113
REMARK   44  A    between atoms: _113  and  _114
REMARK   45  A    between atoms: _113  and  _116
REMARK   46  A    between atoms: _116  and  _117
REMARK   47  A    between atoms: _120  and  _122
REMARK   48  A    between atoms: _122  and  _123
REMARK   49  A    between atoms: _126  and  _128
REMARK   50  A    between atoms: _128  and  _129
REMARK   51  A    between atoms: _128  and  _131
REMARK   52  A    between atoms: _131  and  _132
REMARK   53  A    between atoms: _135  and  _137
REMARK   54  A    between atoms: _137  and  _138
REMARK   55  A    between atoms: _137  and  _140
REMARK   56  A    between atoms: _143  and  _145
REMARK   57  A    between atoms: _145  and  _146
REMARK   58  A    between atoms: _145  and  _148
REMARK   59  A    between atoms: _148  and  _149
REMARK   60  A    between atoms: _152  and  _154
REMARK   61  A    between atoms: _154  and  _155
REMARK   62  A    between atoms: _154  and  _157
REMARK   63  A    between atoms: _157  and  _158
REMARK   64  A    between atoms: _161  and  _163
REMARK   65  A    between atoms: _163  and  _164
REMARK   66  A    between atoms: _163  and  _166
REMARK   67  A    between atoms: _166  and  _167
REMARK   68  A    between atoms: _169  and  _171
REMARK   69  A    between atoms: _171  and  _172
REMARK   70  A    between atoms: _171  and  _174
REMARK   71  A    between atoms: _174  and  _175
REMARK   72  A    between atoms: _175  and  _176
REMARK   73  A    between atoms: _179  and  _181
REMARK   74  A    between atoms: _181  and  _182
REMARK   75  A    between atoms: _181  and  _184
REMARK   76  A    between atoms: _184  and  _185
REMARK   77  A    between atoms: _185  and  _186
REMARK   78  A    between atoms: _186  and  _187
REMARK   79  A    between atoms: _196  and  _198
REMARK   80  A    between atoms: _198  and  _199
REMARK   81  A    between atoms: _198  and  _201
REMARK   82  A    between atoms: _201  and  _202
REMARK   83  A    between atoms: _208  and  _210
REMARK   84  A    between atoms: _210  and  _211
REMARK   85  A    between atoms: _210  and  _213
REMARK   86  A    between atoms: _213  and  _214
REMARK   87  A    between atoms: _217  and  _219
REMARK   88  A    between atoms: _219  and  _220
REMARK   89  A    between atoms: _222  and  _224
REMARK   90  A    between atoms: _224  and  _225
REMARK   91  A    between atoms: _224  and  _227
REMARK   92  A    between atoms: _227  and  _228
REMARK   93  A    between atoms: _231  and  _233
REMARK   94  A    between atoms: _233  and  _234
REMARK   95  A    between atoms: _233  and  _236
REMARK   96  A    between atoms: _236  and  _237
REMARK   97  A    between atoms: _243  and  _245
REMARK   98  A    between atoms: _245  and  _246
REMARK   99  A    between atoms: _245  and  _248
REMARK  100  A    between atoms: _248  and  _249
REMARK  101  A    between atoms: _249  and  _250
REMARK  102  A    between atoms: _250  and  _251
REMARK  103  A    between atoms: _260  and  _262
REMARK  104  A    between atoms: _262  and  _263
REMARK  105  A    between atoms: _262  and  _265
REMARK  106  A    between atoms: _265  and  _266
REMARK  107  A    between atoms: _269  and  _271
REMARK  108  A    between atoms: _271  and  _272
REMARK  109  A    between atoms: _271  and  _274
REMARK  110  A    between atoms: _274  and  _275
REMARK  111  A    between atoms: _278  and  _280
REMARK  112  A    between atoms: _280  and  _281
REMARK  113  A    between atoms: _280  and  _283
REMARK  114  A    between atoms: _286  and  _288
REMARK  115  A    between atoms: _288  and  _289
REMARK  116  A    between atoms: _288  and  _291
REMARK  117  A    between atoms: _291  and  _292
REMARK  118  A    between atoms: _295  and  _297
REMARK  119  A    between atoms: _297  and  _298
REMARK  120  A    between atoms: _297  and  _300
REMARK  121  A    between atoms: _303  and  _305
REMARK  122  A    between atoms: _305  and  _306
REMARK  123  A    between atoms: _305  and  _308
REMARK  124  A    between atoms: _308  and  _309
REMARK  125  A    between atoms: _312  and  _314
REMARK  126  A    between atoms: _314  and  _315
REMARK  127  A    between atoms: _318  and  _320
REMARK  128  A    between atoms: _320  and  _321
REMARK  129  A    between atoms: _320  and  _323
REMARK  130  A    between atoms: _323  and  _324
REMARK  131  A    between atoms: _327  and  _329
REMARK  132  A    between atoms: _329  and  _330
REMARK  133  A    between atoms: _329  and  _332
REMARK  134  A    between atoms: _332  and  _333
REMARK  135  A    between atoms: _335  and  _337
REMARK  136  A    between atoms: _337  and  _338
REMARK  137  A    between atoms: _337  and  _340
REMARK  138  A    between atoms: _340  and  _341
REMARK  139  A    between atoms: _346  and  _348
REMARK  140  A    between atoms: _348  and  _349
REMARK  141  A    between atoms: _348  and  _351
REMARK  142  A    between atoms: _351  and  _352
REMARK  143  A    between atoms: _355  and  _357
REMARK  144  A    between atoms: _357  and  _358
REMARK  145  A    between atoms: _360  and  _362
REMARK  146  A    between atoms: _362  and  _363
REMARK  147  A    between atoms: _362  and  _365
REMARK  148  A    between atoms: _365  and  _366
REMARK  149  A    between atoms: _368  and  _370
REMARK  150  A    between atoms: _370  and  _371
REMARK  151  A    between atoms: _370  and  _373
REMARK  152  A    between atoms: _373  and  _374
REMARK  153  A    between atoms: _374  and  _375
REMARK  154  A    between atoms: _377  and  _379
REMARK  155  A    between atoms: _379  and  _380
REMARK  156  A    between atoms: _379  and  _382
REMARK  157  A    between atoms: _382  and  _383
REMARK  158  A    between atoms: _389  and  _391
REMARK  159  A    between atoms: _391  and  _392
REMARK  160  A    between atoms: _395  and  _397
REMARK  161  A    between atoms: _397  and  _398
REMARK  162  A    between atoms: _402  and  _403
REMARK  163  A    between atoms: _408  and  _410
REMARK  164  A    between atoms: _410  and  _411
REMARK  165  A    between atoms: _410  and  _413
REMARK  166  A    between atoms: _413  and  _414
REMARK  167  A    between atoms: _414  and  _415
REMARK  168  A    between atoms: _417  and  _419
REMARK  169  A    between atoms: _419  and  _420
REMARK  170  A    between atoms: _419  and  _422
REMARK  171  A    between atoms: _422  and  _423
REMARK  172  A    between atoms: _428  and  _430
REMARK  173  A    between atoms: _430  and  _431
REMARK  174  A    between atoms: _430  and  _433
REMARK  175  A    between atoms: _433  and  _434
REMARK  176  A    between atoms: _437  and  _439
REMARK  177  A    between atoms: _439  and  _440
REMARK  178  A    between atoms: _439  and  _442
REMARK  179  A    between atoms: _442  and  _443
REMARK  180  A    between atoms: _449  and  _451
REMARK  181  A    between atoms: _451  and  _452
REMARK  182  A    between atoms: _451  and  _454
REMARK  183  A    between atoms: _454  and  _455
REMARK  184  A    between atoms: _460  and  _461
REMARK  185  A    between atoms: _463  and  _465
REMARK  186  A    between atoms: _465  and  _466
REMARK  187  A    between atoms: _465  and  _468
REMARK  188  A    between atoms: _471  and  _473
REMARK  189  A    between atoms: _473  and  _474
REMARK  190  A    between atoms: _473  and  _476
REMARK  191  A    between atoms: _479  and  _481
REMARK  192  A    between atoms: _481  and  _482
REMARK  193  A    between atoms: _481  and  _484
REMARK  194  A    between atoms: _484  and  _485
REMARK  195  A    between atoms: _487  and  _489
REMARK  196  A    between atoms: _489  and  _490
REMARK  197  A    between atoms: _489  and  _492
REMARK  198  A    between atoms: _492  and  _493
REMARK  199  A    between atoms: _493  and  _494
REMARK  200  A    between atoms: _494  and  _495
REMARK  201  A    between atoms: _504  and  _506
REMARK  202  A    between atoms: _506  and  _507
REMARK  203  A    between atoms: _506  and  _509
REMARK  204  A    between atoms: _509  and  _510
REMARK  205  A    between atoms: _510  and  _511
REMARK  206  A    between atoms: _513  and  _515
REMARK  207  A    between atoms: _515  and  _516
REMARK  208  A    between atoms: _515  and  _518
REMARK  209  A    between atoms: _518  and  _519
REMARK  210  A    between atoms: _522  and  _524
REMARK  211  A    between atoms: _524  and  _525
REMARK  212  A    between atoms: _524  and  _527
REMARK  213  A    between atoms: _527  and  _528
REMARK  214  A    between atoms: _531  and  _533
REMARK  215  A    between atoms: _533  and  _534
REMARK  216  A    between atoms: _533  and  _536
REMARK  217  A    between atoms: _536  and  _537
REMARK  218  A    between atoms: _537  and  _538
REMARK  219  A    between atoms: _538  and  _539
REMARK  220  A    between atoms: _548  and  _550
REMARK  221  A    between atoms: _550  and  _551
REMARK  222  A    between atoms: _550  and  _553
REMARK  223  A    between atoms: _553  and  _554
REMARK  224  A    between atoms: _557  and  _559
REMARK  225  A    between atoms: _559  and  _560
REMARK  226  A    between atoms: _559  and  _562
REMARK  227  A    between atoms: _562  and  _563
REMARK  228  A    between atoms: _569  and  _571
REMARK  229  A    between atoms: _571  and  _572
REMARK  230  A    between atoms: _571  and  _574
REMARK  231  A    between atoms: _574  and  _575
REMARK  232  A    between atoms: _578  and  _580
REMARK  233  A    between atoms: _580  and  _581
REMARK  234  A    between atoms: _584  and  _586
REMARK  235  A    between atoms: _586  and  _587
REMARK  236  A    between atoms: _586  and  _589
REMARK  237  A    between atoms: _589  and  _590
REMARK  238  A    between atoms: _590  and  _591
REMARK  239  A    between atoms: _593  and  _595
REMARK  240  A    between atoms: _595  and  _596
REMARK  241  A    between atoms: _595  and  _598
REMARK  242  A    between atoms: _598  and  _599
REMARK  243  A    between atoms: _599  and  _600
REMARK  244  A    between atoms: _603  and  _605
REMARK  245  A    between atoms: _605  and  _606
REMARK  246  A    between atoms: _605  and  _608
REMARK  247  A    between atoms: _608  and  _609
REMARK  248  A    between atoms: _609  and  _610
REMARK  249  A    between atoms: _610  and  _611
REMARK  250  A    between atoms: _620  and  _622
REMARK  251  A    between atoms: _622  and  _623
REMARK  252  A    between atoms: _622  and  _625
REMARK  253  A    between atoms: _625  and  _626
REMARK  254  A    between atoms: _631  and  _633
REMARK  255  A    between atoms: _633  and  _634
REMARK  256  A    between atoms: _633  and  _636
REMARK  257  A    between atoms: _636  and  _637
REMARK  258  A    between atoms: _637  and  _638
REMARK  259  A    between atoms: _640  and  _642
REMARK  260  A    between atoms: _642  and  _643
REMARK  261  A    between atoms: _642  and  _645
REMARK  262  A    between atoms: _645  and  _646
REMARK  263  A    between atoms: _651  and  _652
REMARK  264  A    between atoms: _654  and  _656
REMARK  265  A    between atoms: _656  and  _657
REMARK  266  A    between atoms: _656  and  _659
REMARK  267  A    between atoms: _661  and  _663
REMARK  268  A    between atoms: _663  and  _664
REMARK  269  A    between atoms: _663  and  _666
REMARK  270  A    between atoms: _666  and  _667
REMARK  271  A    between atoms: _672  and  _673
REMARK  272  A    between atoms: _675  and  _677
REMARK  273  A    between atoms: _677  and  _678
REMARK  274  A    between atoms: _677  and  _680
REMARK  275  A    between atoms: _680  and  _681
REMARK  276  A    between atoms: _684  and  _686
REMARK  277  A    between atoms: _686  and  _687
REMARK  278  A    between atoms: _686  and  _689
REMARK  279  A    between atoms: _692  and  _694
REMARK  280  A    between atoms: _694  and  _695
REMARK  281  A    between atoms: _694  and  _697
REMARK  282  A    between atoms: _697  and  _698
REMARK  283  A    between atoms: _703  and  _704
REMARK  284  A    between atoms: _706  and  _708
REMARK  285  A    between atoms: _708  and  _709
REMARK  286  A    between atoms: _708  and  _711
REMARK  287  A    between atoms: _711  and  _712
REMARK  288  A    between atoms: _718  and  _720
REMARK  289  A    between atoms: _720  and  _721
REMARK  290  A    between atoms: _724  and  _726
REMARK  291  A    between atoms: _726  and  _727
REMARK  292  A    between atoms: _726  and  _729
REMARK  293  A    between atoms: _732  and  _734
REMARK  294  A    between atoms: _734  and  _735
REMARK  295  A    between atoms: _734  and  _737
REMARK  296  A    between atoms: _737  and  _738
REMARK  297  A    between atoms: _741  and  _743
REMARK  298  A    between atoms: _743  and  _744
REMARK  299  A    between atoms: _746  and  _748
REMARK  300  A    between atoms: _748  and  _749
REMARK  301  A    between atoms: _748  and  _751
REMARK  302  A    between atoms: _751  and  _752
REMARK  303  A    between atoms: _752  and  _753
REMARK  304  A    between atoms: _756  and  _758
REMARK  305  A    between atoms: _758  and  _759
REMARK  306  A    between atoms: _758  and  _761
REMARK  307  A    between atoms: _761  and  _762
REMARK                            x       y       z     vdW  Elec       q    Type
REMARK                         _______ _______ _______ _____ _____    ______ ____
ROOT
ATOM      1  O   HOH     1     -24.187   0.117  -4.793  0.00  0.00    +0.000 OA
ENDROOT
TORSDOF 0
REMARK  Name = ../refined-set-2016/4v24/4v24_pocket.pdb
REMARK  307 active torsions:
REMARK  status: ('A' for Active; 'I' for Inactive)
REMARK    1  A    between atoms: _1  and  _3
REMARK    2  A    between atoms: _3  and  _4
REMARK    3  A    between atoms: _6  and  _8
REMARK    4  A    between atoms: _8  and  _9
REMARK    5  A    between atoms: _8  and  _11
REMARK    6  A    between atoms: _11  and  _12
REMARK    7  A    between atoms: _15  and  _17
REMARK    8  A    between atoms: _17  and  _18
REMARK    9  A    between atoms: _20  and  _22
REMARK   10  A    between atoms: _22  and  _23
REMARK   11  A    between atoms: _25  and  _27
REMARK   12  A    between atoms: _27  and  _28
REMARK   13  A    between atoms: _27  and  _30
REMARK   14  A    between atoms: _30  and  _31
REMARK   15  A    between atoms: _36  and  _38
REMARK   16  A    between atoms: _38  and  _39
REMARK   17  A    between atoms: _42  and  _44
REMARK   18  A    between atoms: _44  and  _45
REMARK   19  A    between atoms: _44  and  _47
REMARK   20  A    between atoms: _47  and  _48
REMARK   21  A    between atoms: _51  and  _53
REMARK   22  A    between atoms: _53  and  _54
REMARK   23  A    between atoms: _53  and  _56
REMARK   24  A    between atoms: _56  and  _57
REMARK   25  A    between atoms: _60  and  _62
REMARK   26  A    between atoms: _62  and  _63
REMARK   27  A    between atoms: _62  and  _65
REMARK   28  A    between atoms: _65  and  _66
REMARK   29  A    between atoms: _68  and  _70
REMARK   30  A    between atoms: _70  and  _71
REMARK   31  A    between atoms: _70  and  _73
REMARK   32  A    between atoms: _73  and  _74
REMARK   33  A    between atoms: _77  and  _79
REMARK   34  A    between atoms: _79  and  _80
REMARK   35  A    between atoms: _83  and  _85
REMARK   36  A    between atoms: _85  and  _86
REMARK   37  A    between atoms: _85  and  _88
REMARK   38  A    between atoms: _88  and  _89
REMARK   39  A    between atoms: _99  and  _101
REMARK   40  A    between atoms: _101  and  _102
REMARK   41  A    between atoms: _101  and  _104
REMARK   42  A    between atoms: _104  and  _105
REMARK   43  A    between atoms: _111  and  _113
REMARK   44  A    between atoms: _113  and  _114
REMARK   45  A    between atoms: _113  and  _116
REMARK   46  A    between atoms: _116  and  _117
REMARK   47  A    between atoms: _120  and  _122
REMARK   48  A    between atoms: _122  and  _123
REMARK   49  A    between atoms: _126  and  _128
REMARK   50  A    between atoms: _128  and  _129
REMARK   51  A    between atoms: _128  and  _131
REMARK   52  A    between atoms: _131  and  _132
REMARK   53  A    between atoms: _135  and  _137
REMARK   54  A    between atoms: _137  and  _138
REMARK   55  A    between atoms: _137  and  _140
REMARK   56  A    between atoms: _143  and  _145
REMARK   57  A    between atoms: _145  and  _146
REMARK   58  A    between atoms: _145  and  _148
REMARK   59  A    between atoms: _148  and  _149
REMARK   60  A    between atoms: _152  and  _154
REMARK   61  A    between atoms: _154  and  _155
REMARK   62  A    between atoms: _154  and  _157
REMARK   63  A    between atoms: _157  and  _158
REMARK   64  A    between atoms: _161  and  _163
REMARK   65  A    between atoms: _163  and  _164
REMARK   66  A    between atoms: _163  and  _166
REMARK   67  A    between atoms: _166  and  _167
REMARK   68  A    between atoms: _169  and  _171
REMARK   69  A    between atoms: _171  and  _172
REMARK   70  A    between atoms: _171  and  _174
REMARK   71  A    between atoms: _174  and  _175
REMARK   72  A    between atoms: _175  and  _176
REMARK   73  A    between atoms: _179  and  _181
REMARK   74  A    between atoms: _181  and  _182
REMARK   75  A    between atoms: _181  and  _184
REMARK   76  A    between atoms: _184  and  _185
REMARK   77  A    between atoms: _185  and  _186
REMARK   78  A    between atoms: _186  and  _187
REMARK   79  A    between atoms: _196  and  _198
REMARK   80  A    between atoms: _198  and  _199
REMARK   81  A    between atoms: _198  and  _201
REMARK   82  A    between atoms: _201  and  _202
REMARK   83  A    between atoms: _208  and  _210
REMARK   84  A    between atoms: _210  and  _211
REMARK   85  A    between atoms: _210  and  _213
REMARK   86  A    between atoms: _213  and  _214
REMARK   87  A    between atoms: _217  and  _219
REMARK   88  A    between atoms: _219  and  _220
REMARK   89  A    between atoms: _222  and  _224
REMARK   90  A    between atoms: _224  and  _225
REMARK   91  A    between atoms: _224  and  _227
REMARK   92  A    between atoms: _227  and  _228
REMARK   93  A    between atoms: _231  and  _233
REMARK   94  A    between atoms: _233  and  _234
REMARK   95  A    between atoms: _233  and  _236
REMARK   96  A    between atoms: _236  and  _237
REMARK   97  A    between atoms: _243  and  _245
REMARK   98  A    between atoms: _245  and  _246
REMARK   99  A    between atoms: _245  and  _248
REMARK  100  A    between atoms: _248  and  _249
REMARK  101  A    between atoms: _249  and  _250
REMARK  102  A    between atoms: _250  and  _251
REMARK  103  A    between atoms: _260  and  _262
REMARK  104  A    between atoms: _262  and  _263
REMARK  105  A    between atoms: _262  and  _265
REMARK  106  A    between atoms: _265  and  _266
REMARK  107  A    between atoms: _269  and  _271
REMARK  108  A    between atoms: _271  and  _272
REMARK  109  A    between atoms: _271  and  _274
REMARK  110  A    between atoms: _274  and  _275
REMARK  111  A    between atoms: _278  and  _280
REMARK  112  A    between atoms: _280  and  _281
REMARK  113  A    between atoms: _280  and  _283
REMARK  114  A    between atoms: _286  and  _288
REMARK  115  A    between atoms: _288  and  _289
REMARK  116  A    between atoms: _288  and  _291
REMARK  117  A    between atoms: _291  and  _292
REMARK  118  A    between atoms: _295  and  _297
REMARK  119  A    between atoms: _297  and  _298
REMARK  120  A    between atoms: _297  and  _300
REMARK  121  A    between atoms: _303  and  _305
REMARK  122  A    between atoms: _305  and  _306
REMARK  123  A    between atoms: _305  and  _308
REMARK  124  A    between atoms: _308  and  _309
REMARK  125  A    between atoms: _312  and  _314
REMARK  126  A    between atoms: _314  and  _315
REMARK  127  A    between atoms: _318  and  _320
REMARK  128  A    between atoms: _320  and  _321
REMARK  129  A    between atoms: _320  and  _323
REMARK  130  A    between atoms: _323  and  _324
REMARK  131  A    between atoms: _327  and  _329
REMARK  132  A    between atoms: _329  and  _330
REMARK  133  A    between atoms: _329  and  _332
REMARK  134  A    between atoms: _332  and  _333
REMARK  135  A    between atoms: _335  and  _337
REMARK  136  A    between atoms: _337  and  _338
REMARK  137  A    between atoms: _337  and  _340
REMARK  138  A    between atoms: _340  and  _341
REMARK  139  A    between atoms: _346  and  _348
REMARK  140  A    between atoms: _348  and  _349
REMARK  141  A    between atoms: _348  and  _351
REMARK  142  A    between atoms: _351  and  _352
REMARK  143  A    between atoms: _355  and  _357
REMARK  144  A    between atoms: _357  and  _358
REMARK  145  A    between atoms: _360  and  _362
REMARK  146  A    between atoms: _362  and  _363
REMARK  147  A    between atoms: _362  and  _365
REMARK  148  A    between atoms: _365  and  _366
REMARK  149  A    between atoms: _368  and  _370
REMARK  150  A    between atoms: _370  and  _371
REMARK  151  A    between atoms: _370  and  _373
REMARK  152  A    between atoms: _373  and  _374
REMARK  153  A    between atoms: _374  and  _375
REMARK  154  A    between atoms: _377  and  _379
REMARK  155  A    between atoms: _379  and  _380
REMARK  156  A    between atoms: _379  and  _382
REMARK  157  A    between atoms: _382  and  _383
REMARK  158  A    between atoms: _389  and  _391
REMARK  159  A    between atoms: _391  and  _392
REMARK  160  A    between atoms: _395  and  _397
REMARK  161  A    between atoms: _397  and  _398
REMARK  162  A    between atoms: _402  and  _403
REMARK  163  A    between atoms: _408  and  _410
REMARK  164  A    between atoms: _410  and  _411
REMARK  165  A    between atoms: _410  and  _413
REMARK  166  A    between atoms: _413  and  _414
REMARK  167  A    between atoms: _414  and  _415
REMARK  168  A    between atoms: _417  and  _419
REMARK  169  A    between atoms: _419  and  _420
REMARK  170  A    between atoms: _419  and  _422
REMARK  171  A    between atoms: _422  and  _423
REMARK  172  A    between atoms: _428  and  _430
REMARK  173  A    between atoms: _430  and  _431
REMARK  174  A    between atoms: _430  and  _433
REMARK  175  A    between atoms: _433  and  _434
REMARK  176  A    between atoms: _437  and  _439
REMARK  177  A    between atoms: _439  and  _440
REMARK  178  A    between atoms: _439  and  _442
REMARK  179  A    between atoms: _442  and  _443
REMARK  180  A    between atoms: _449  and  _451
REMARK  181  A    between atoms: _451  and  _452
REMARK  182  A    between atoms: _451  and  _454
REMARK  183  A    between atoms: _454  and  _455
REMARK  184  A    between atoms: _460  and  _461
REMARK  185  A    between atoms: _463  and  _465
REMARK  186  A    between atoms: _465  and  _466
REMARK  187  A    between atoms: _465  and  _468
REMARK  188  A    between atoms: _471  and  _473
REMARK  189  A    between atoms: _473  and  _474
REMARK  190  A    between atoms: _473  and  _476
REMARK  191  A    between atoms: _479  and  _481
REMARK  192  A    between atoms: _481  and  _482
REMARK  193  A    between atoms: _481  and  _484
REMARK  194  A    between atoms: _484  and  _485
REMARK  195  A    between atoms: _487  and  _489
REMARK  196  A    between atoms: _489  and  _490
REMARK  197  A    between atoms: _489  and  _492
REMARK  198  A    between atoms: _492  and  _493
REMARK  199  A    between atoms: _493  and  _494
REMARK  200  A    between atoms: _494  and  _495
REMARK  201  A    between atoms: _504  and  _506
REMARK  202  A    between atoms: _506  and  _507
REMARK  203  A    between atoms: _506  and  _509
REMARK  204  A    between atoms: _509  and  _510
REMARK  205  A    between atoms: _510  and  _511
REMARK  206  A    between atoms: _513  and  _515
REMARK  207  A    between atoms: _515  and  _516
REMARK  208  A    between atoms: _515  and  _518
REMARK  209  A    between atoms: _518  and  _519
REMARK  210  A    between atoms: _522  and  _524
REMARK  211  A    between atoms: _524  and  _525
REMARK  212  A    between atoms: _524  and  _527
REMARK  213  A    between atoms: _527  and  _528
REMARK  214  A    between atoms: _531  and  _533
REMARK  215  A    between atoms: _533  and  _534
REMARK  216  A    between atoms: _533  and  _536
REMARK  217  A    between atoms: _536  and  _537
REMARK  218  A    between atoms: _537  and  _538
REMARK  219  A    between atoms: _538  and  _539
REMARK  220  A    between atoms: _548  and  _550
REMARK  221  A    between atoms: _550  and  _551
REMARK  222  A    between atoms: _550  and  _553
REMARK  223  A    between atoms: _553  and  _554
REMARK  224  A    between atoms: _557  and  _559
REMARK  225  A    between atoms: _559  and  _560
REMARK  226  A    between atoms: _559  and  _562
REMARK  227  A    between atoms: _562  and  _563
REMARK  228  A    between atoms: _569  and  _571
REMARK  229  A    between atoms: _571  and  _572
REMARK  230  A    between atoms: _571  and  _574
REMARK  231  A    between atoms: _574  and  _575
REMARK  232  A    between atoms: _578  and  _580
REMARK  233  A    between atoms: _580  and  _581
REMARK  234  A    between atoms: _584  and  _586
REMARK  235  A    between atoms: _586  and  _587
REMARK  236  A    between atoms: _586  and  _589
REMARK  237  A    between atoms: _589  and  _590
REMARK  238  A    between atoms: _590  and  _591
REMARK  239  A    between atoms: _593  and  _595
REMARK  240  A    between atoms: _595  and  _596
REMARK  241  A    between atoms: _595  and  _598
REMARK  242  A    between atoms: _598  and  _599
REMARK  243  A    between atoms: _599  and  _600
REMARK  244  A    between atoms: _603  and  _605
REMARK  245  A    between atoms: _605  and  _606
REMARK  246  A    between atoms: _605  and  _608
REMARK  247  A    between atoms: _608  and  _609
REMARK  248  A    between atoms: _609  and  _610
REMARK  249  A    between atoms: _610  and  _611
REMARK  250  A    between atoms: _620  and  _622
REMARK  251  A    between atoms: _622  and  _623
REMARK  252  A    between atoms: _622  and  _625
REMARK  253  A    between atoms: _625  and  _626
REMARK  254  A    between atoms: _631  and  _633
REMARK  255  A    between atoms: _633  and  _634
REMARK  256  A    between atoms: _633  and  _636
REMARK  257  A    between atoms: _636  and  _637
REMARK  258  A    between atoms: _637  and  _638
REMARK  259  A    between atoms: _640  and  _642
REMARK  260  A    between atoms: _642  and  _643
REMARK  261  A    between atoms: _642  and  _645
REMARK  262  A    between atoms: _645  and  _646
REMARK  263  A    between atoms: _651  and  _652
REMARK  264  A    between atoms: _654  and  _656
REMARK  265  A    between atoms: _656  and  _657
REMARK  266  A    between atoms: _656  and  _659
REMARK  267  A    between atoms: _661  and  _663
REMARK  268  A    between atoms: _663  and  _664
REMARK  269  A    between atoms: _663  and  _666
REMARK  270  A    between atoms: _666  and  _667
REMARK  271  A    between atoms: _672  and  _673
REMARK  272  A    between atoms: _675  and  _677
REMARK  273  A    between atoms: _677  and  _678
REMARK  274  A    between atoms: _677  and  _680
REMARK  275  A    between atoms: _680  and  _681
REMARK  276  A    between atoms: _684  and  _686
REMARK  277  A    between atoms: _686  and  _687
REMARK  278  A    between atoms: _686  and  _689
REMARK  279  A    between atoms: _692  and  _694
REMARK  280  A    between atoms: _694  and  _695
REMARK  281  A    between atoms: _694  and  _697
REMARK  282  A    between atoms: _697  and  _698
REMARK  283  A    between atoms: _703  and  _704
REMARK  284  A    between atoms: _706  and  _708
REMARK  285  A    between atoms: _708  and  _709
REMARK  286  A    between atoms: _708  and  _711
REMARK  287  A    between atoms: _711  and  _712
REMARK  288  A    between atoms: _718  and  _720
REMARK  289  A    between atoms: _720  and  _721
REMARK  290  A    between atoms: _724  and  _726
REMARK  291  A    between atoms: _726  and  _727
REMARK  292  A    between atoms: _726  and  _729
REMARK  293  A    between atoms: _732  and  _734
REMARK  294  A    between atoms: _734  and  _735
REMARK  295  A    between atoms: _734  and  _737
REMARK  296  A    between atoms: _737  and  _738
REMARK  297  A    between atoms: _741  and  _743
REMARK  298  A    between atoms: _743  and  _744
REMARK  299  A    between atoms: _746  and  _748
REMARK  300  A    between atoms: _748  and  _749
REMARK  301  A    between atoms: _748  and  _751
REMARK  302  A    between atoms: _751  and  _752
REMARK  303  A    between atoms: _752  and  _753
REMARK  304  A    between atoms: _756  and  _758
REMARK  305  A    between atoms: _758  and  _759
REMARK  306  A    between atoms: _758  and  _761
REMARK  307  A    between atoms: _761  and  _762
REMARK                            x       y       z     vdW  Elec       q    Type
REMARK                         _______ _______ _______ _____ _____    ______ ____
ROOT
ATOM      1  O   HOH     1     -21.177  -0.840  -3.413  0.00  0.00    +0.000 OA
ENDROOT
TORSDOF 0
REMARK  Name = ../refined-set-2016/4v24/4v24_pocket.pdb
REMARK  307 active torsions:
REMARK  status: ('A' for Active; 'I' for Inactive)
REMARK    1  A    between atoms: _1  and  _3
REMARK    2  A    between atoms: _3  and  _4
REMARK    3  A    between atoms: _6  and  _8
REMARK    4  A    between atoms: _8  and  _9
REMARK    5  A    between atoms: _8  and  _11
REMARK    6  A    between atoms: _11  and  _12
REMARK    7  A    between atoms: _15  and  _17
REMARK    8  A    between atoms: _17  and  _18
REMARK    9  A    between atoms: _20  and  _22
REMARK   10  A    between atoms: _22  and  _23
REMARK   11  A    between atoms: _25  and  _27
REMARK   12  A    between atoms: _27  and  _28
REMARK   13  A    between atoms: _27  and  _30
REMARK   14  A    between atoms: _30  and  _31
REMARK   15  A    between atoms: _36  and  _38
REMARK   16  A    between atoms: _38  and  _39
REMARK   17  A    between atoms: _42  and  _44
REMARK   18  A    between atoms: _44  and  _45
REMARK   19  A    between atoms: _44  and  _47
REMARK   20  A    between atoms: _47  and  _48
REMARK   21  A    between atoms: _51  and  _53
REMARK   22  A    between atoms: _53  and  _54
REMARK   23  A    between atoms: _53  and  _56
REMARK   24  A    between atoms: _56  and  _57
REMARK   25  A    between atoms: _60  and  _62
REMARK   26  A    between atoms: _62  and  _63
REMARK   27  A    between atoms: _62  and  _65
REMARK   28  A    between atoms: _65  and  _66
REMARK   29  A    between atoms: _68  and  _70
REMARK   30  A    between atoms: _70  and  _71
REMARK   31  A    between atoms: _70  and  _73
REMARK   32  A    between atoms: _73  and  _74
REMARK   33  A    between atoms: _77  and  _79
REMARK   34  A    between atoms: _79  and  _80
REMARK   35  A    between atoms: _83  and  _85
REMARK   36  A    between atoms: _85  and  _86
REMARK   37  A    between atoms: _85  and  _88
REMARK   38  A    between atoms: _88  and  _89
REMARK   39  A    between atoms: _99  and  _101
REMARK   40  A    between atoms: _101  and  _102
REMARK   41  A    between atoms: _101  and  _104
REMARK   42  A    between atoms: _104  and  _105
REMARK   43  A    between atoms: _111  and  _113
REMARK   44  A    between atoms: _113  and  _114
REMARK   45  A    between atoms: _113  and  _116
REMARK   46  A    between atoms: _116  and  _117
REMARK   47  A    between atoms: _120  and  _122
REMARK   48  A    between atoms: _122  and  _123
REMARK   49  A    between atoms: _126  and  _128
REMARK   50  A    between atoms: _128  and  _129
REMARK   51  A    between atoms: _128  and  _131
REMARK   52  A    between atoms: _131  and  _132
REMARK   53  A    between atoms: _135  and  _137
REMARK   54  A    between atoms: _137  and  _138
REMARK   55  A    between atoms: _137  and  _140
REMARK   56  A    between atoms: _143  and  _145
REMARK   57  A    between atoms: _145  and  _146
REMARK   58  A    between atoms: _145  and  _148
REMARK   59  A    between atoms: _148  and  _149
REMARK   60  A    between atoms: _152  and  _154
REMARK   61  A    between atoms: _154  and  _155
REMARK   62  A    between atoms: _154  and  _157
REMARK   63  A    between atoms: _157  and  _158
REMARK   64  A    between atoms: _161  and  _163
REMARK   65  A    between atoms: _163  and  _164
REMARK   66  A    between atoms: _163  and  _166
REMARK   67  A    between atoms: _166  and  _167
REMARK   68  A    between atoms: _169  and  _171
REMARK   69  A    between atoms: _171  and  _172
REMARK   70  A    between atoms: _171  and  _174
REMARK   71  A    between atoms: _174  and  _175
REMARK   72  A    between atoms: _175  and  _176
REMARK   73  A    between atoms: _179  and  _181
REMARK   74  A    between atoms: _181  and  _182
REMARK   75  A    between atoms: _181  and  _184
REMARK   76  A    between atoms: _184  and  _185
REMARK   77  A    between atoms: _185  and  _186
REMARK   78  A    between atoms: _186  and  _187
REMARK   79  A    between atoms: _196  and  _198
REMARK   80  A    between atoms: _198  and  _199
REMARK   81  A    between atoms: _198  and  _201
REMARK   82  A    between atoms: _201  and  _202
REMARK   83  A    between atoms: _208  and  _210
REMARK   84  A    between atoms: _210  and  _211
REMARK   85  A    between atoms: _210  and  _213
REMARK   86  A    between atoms: _213  and  _214
REMARK   87  A    between atoms: _217  and  _219
REMARK   88  A    between atoms: _219  and  _220
REMARK   89  A    between atoms: _222  and  _224
REMARK   90  A    between atoms: _224  and  _225
REMARK   91  A    between atoms: _224  and  _227
REMARK   92  A    between atoms: _227  and  _228
REMARK   93  A    between atoms: _231  and  _233
REMARK   94  A    between atoms: _233  and  _234
REMARK   95  A    between atoms: _233  and  _236
REMARK   96  A    between atoms: _236  and  _237
REMARK   97  A    between atoms: _243  and  _245
REMARK   98  A    between atoms: _245  and  _246
REMARK   99  A    between atoms: _245  and  _248
REMARK  100  A    between atoms: _248  and  _249
REMARK  101  A    between atoms: _249  and  _250
REMARK  102  A    between atoms: _250  and  _251
REMARK  103  A    between atoms: _260  and  _262
REMARK  104  A    between atoms: _262  and  _263
REMARK  105  A    between atoms: _262  and  _265
REMARK  106  A    between atoms: _265  and  _266
REMARK  107  A    between atoms: _269  and  _271
REMARK  108  A    between atoms: _271  and  _272
REMARK  109  A    between atoms: _271  and  _274
REMARK  110  A    between atoms: _274  and  _275
REMARK  111  A    between atoms: _278  and  _280
REMARK  112  A    between atoms: _280  and  _281
REMARK  113  A    between atoms: _280  and  _283
REMARK  114  A    between atoms: _286  and  _288
REMARK  115  A    between atoms: _288  and  _289
REMARK  116  A    between atoms: _288  and  _291
REMARK  117  A    between atoms: _291  and  _292
REMARK  118  A    between atoms: _295  and  _297
REMARK  119  A    between atoms: _297  and  _298
REMARK  120  A    between atoms: _297  and  _300
REMARK  121  A    between atoms: _303  and  _305
REMARK  122  A    between atoms: _305  and  _306
REMARK  123  A    between atoms: _305  and  _308
REMARK  124  A    between atoms: _308  and  _309
REMARK  125  A    between atoms: _312  and  _314
REMARK  126  A    between atoms: _314  and  _315
REMARK  127  A    between atoms: _318  and  _320
REMARK  128  A    between atoms: _320  and  _321
REMARK  129  A    between atoms: _320  and  _323
REMARK  130  A    between atoms: _323  and  _324
REMARK  131  A    between atoms: _327  and  _329
REMARK  132  A    between atoms: _329  and  _330
REMARK  133  A    between atoms: _329  and  _332
REMARK  134  A    between atoms: _332  and  _333
REMARK  135  A    between atoms: _335  and  _337
REMARK  136  A    between atoms: _337  and  _338
REMARK  137  A    between atoms: _337  and  _340
REMARK  138  A    between atoms: _340  and  _341
REMARK  139  A    between atoms: _346  and  _348
REMARK  140  A    between atoms: _348  and  _349
REMARK  141  A    between atoms: _348  and  _351
REMARK  142  A    between atoms: _351  and  _352
REMARK  143  A    between atoms: _355  and  _357
REMARK  144  A    between atoms: _357  and  _358
REMARK  145  A    between atoms: _360  and  _362
REMARK  146  A    between atoms: _362  and  _363
REMARK  147  A    between atoms: _362  and  _365
REMARK  148  A    between atoms: _365  and  _366
REMARK  149  A    between atoms: _368  and  _370
REMARK  150  A    between atoms: _370  and  _371
REMARK  151  A    between atoms: _370  and  _373
REMARK  152  A    between atoms: _373  and  _374
REMARK  153  A    between atoms: _374  and  _375
REMARK  154  A    between atoms: _377  and  _379
REMARK  155  A    between atoms: _379  and  _380
REMARK  156  A    between atoms: _379  and  _382
REMARK  157  A    between atoms: _382  and  _383
REMARK  158  A    between atoms: _389  and  _391
REMARK  159  A    between atoms: _391  and  _392
REMARK  160  A    between atoms: _395  and  _397
REMARK  161  A    between atoms: _397  and  _398
REMARK  162  A    between atoms: _402  and  _403
REMARK  163  A    between atoms: _408  and  _410
REMARK  164  A    between atoms: _410  and  _411
REMARK  165  A    between atoms: _410  and  _413
REMARK  166  A    between atoms: _413  and  _414
REMARK  167  A    between atoms: _414  and  _415
REMARK  168  A    between atoms: _417  and  _419
REMARK  169  A    between atoms: _419  and  _420
REMARK  170  A    between atoms: _419  and  _422
REMARK  171  A    between atoms: _422  and  _423
REMARK  172  A    between atoms: _428  and  _430
REMARK  173  A    between atoms: _430  and  _431
REMARK  174  A    between atoms: _430  and  _433
REMARK  175  A    between atoms: _433  and  _434
REMARK  176  A    between atoms: _437  and  _439
REMARK  177  A    between atoms: _439  and  _440
REMARK  178  A    between atoms: _439  and  _442
REMARK  179  A    between atoms: _442  and  _443
REMARK  180  A    between atoms: _449  and  _451
REMARK  181  A    between atoms: _451  and  _452
REMARK  182  A    between atoms: _451  and  _454
REMARK  183  A    between atoms: _454  and  _455
REMARK  184  A    between atoms: _460  and  _461
REMARK  185  A    between atoms: _463  and  _465
REMARK  186  A    between atoms: _465  and  _466
REMARK  187  A    between atoms: _465  and  _468
REMARK  188  A    between atoms: _471  and  _473
REMARK  189  A    between atoms: _473  and  _474
REMARK  190  A    between atoms: _473  and  _476
REMARK  191  A    between atoms: _479  and  _481
REMARK  192  A    between atoms: _481  and  _482
REMARK  193  A    between atoms: _481  and  _484
REMARK  194  A    between atoms: _484  and  _485
REMARK  195  A    between atoms: _487  and  _489
REMARK  196  A    between atoms: _489  and  _490
REMARK  197  A    between atoms: _489  and  _492
REMARK  198  A    between atoms: _492  and  _493
REMARK  199  A    between atoms: _493  and  _494
REMARK  200  A    between atoms: _494  and  _495
REMARK  201  A    between atoms: _504  and  _506
REMARK  202  A    between atoms: _506  and  _507
REMARK  203  A    between atoms: _506  and  _509
REMARK  204  A    between atoms: _509  and  _510
REMARK  205  A    between atoms: _510  and  _511
REMARK  206  A    between atoms: _513  and  _515
REMARK  207  A    between atoms: _515  and  _516
REMARK  208  A    between atoms: _515  and  _518
REMARK  209  A    between atoms: _518  and  _519
REMARK  210  A    between atoms: _522  and  _524
REMARK  211  A    between atoms: _524  and  _525
REMARK  212  A    between atoms: _524  and  _527
REMARK  213  A    between atoms: _527  and  _528
REMARK  214  A    between atoms: _531  and  _533
REMARK  215  A    between atoms: _533  and  _534
REMARK  216  A    between atoms: _533  and  _536
REMARK  217  A    between atoms: _536  and  _537
REMARK  218  A    between atoms: _537  and  _538
REMARK  219  A    between atoms: _538  and  _539
REMARK  220  A    between atoms: _548  and  _550
REMARK  221  A    between atoms: _550  and  _551
REMARK  222  A    between atoms: _550  and  _553
REMARK  223  A    between atoms: _553  and  _554
REMARK  224  A    between atoms: _557  and  _559
REMARK  225  A    between atoms: _559  and  _560
REMARK  226  A    between atoms: _559  and  _562
REMARK  227  A    between atoms: _562  and  _563
REMARK  228  A    between atoms: _569  and  _571
REMARK  229  A    between atoms: _571  and  _572
REMARK  230  A    between atoms: _571  and  _574
REMARK  231  A    between atoms: _574  and  _575
REMARK  232  A    between atoms: _578  and  _580
REMARK  233  A    between atoms: _580  and  _581
REMARK  234  A    between atoms: _584  and  _586
REMARK  235  A    between atoms: _586  and  _587
REMARK  236  A    between atoms: _586  and  _589
REMARK  237  A    between atoms: _589  and  _590
REMARK  238  A    between atoms: _590  and  _591
REMARK  239  A    between atoms: _593  and  _595
REMARK  240  A    between atoms: _595  and  _596
REMARK  241  A    between atoms: _595  and  _598
REMARK  242  A    between atoms: _598  and  _599
REMARK  243  A    between atoms: _599  and  _600
REMARK  244  A    between atoms: _603  and  _605
REMARK  245  A    between atoms: _605  and  _606
REMARK  246  A    between atoms: _605  and  _608
REMARK  247  A    between atoms: _608  and  _609
REMARK  248  A    between atoms: _609  and  _610
REMARK  249  A    between atoms: _610  and  _611
REMARK  250  A    between atoms: _620  and  _622
REMARK  251  A    between atoms: _622  and  _623
REMARK  252  A    between atoms: _622  and  _625
REMARK  253  A    between atoms: _625  and  _626
REMARK  254  A    between atoms: _631  and  _633
REMARK  255  A    between atoms: _633  and  _634
REMARK  256  A    between atoms: _633  and  _636
REMARK  257  A    between atoms: _636  and  _637
REMARK  258  A    between atoms: _637  and  _638
REMARK  259  A    between atoms: _640  and  _642
REMARK  260  A    between atoms: _642  and  _643
REMARK  261  A    between atoms: _642  and  _645
REMARK  262  A    between atoms: _645  and  _646
REMARK  263  A    between atoms: _651  and  _652
REMARK  264  A    between atoms: _654  and  _656
REMARK  265  A    between atoms: _656  and  _657
REMARK  266  A    between atoms: _656  and  _659
REMARK  267  A    between atoms: _661  and  _663
REMARK  268  A    between atoms: _663  and  _664
REMARK  269  A    between atoms: _663  and  _666
REMARK  270  A    between atoms: _666  and  _667
REMARK  271  A    between atoms: _672  and  _673
REMARK  272  A    between atoms: _675  and  _677
REMARK  273  A    between atoms: _677  and  _678
REMARK  274  A    between atoms: _677  and  _680
REMARK  275  A    between atoms: _680  and  _681
REMARK  276  A    between atoms: _684  and  _686
REMARK  277  A    between atoms: _686  and  _687
REMARK  278  A    between atoms: _686  and  _689
REMARK  279  A    between atoms: _692  and  _694
REMARK  280  A    between atoms: _694  and  _695
REMARK  281  A    between atoms: _694  and  _697
REMARK  282  A    between atoms: _697  and  _698
REMARK  283  A    between atoms: _703  and  _704
REMARK  284  A    between atoms: _706  and  _708
REMARK  285  A    between atoms: _708  and  _709
REMARK  286  A    between atoms: _708  and  _711
REMARK  287  A    between atoms: _711  and  _712
REMARK  288  A    between atoms: _718  and  _720
REMARK  289  A    between atoms: _720  and  _721
REMARK  290  A    between atoms: _724  and  _726
REMARK  291  A    between atoms: _726  and  _727
REMARK  292  A    between atoms: _726  and  _729
REMARK  293  A    between atoms: _732  and  _734
REMARK  294  A    between atoms: _734  and  _735
REMARK  295  A    between atoms: _734  and  _737
REMARK  296  A    between atoms: _737  and  _738
REMARK  297  A    between atoms: _741  and  _743
REMARK  298  A    between atoms: _743  and  _744
REMARK  299  A    between atoms: _746  and  _748
REMARK  300  A    between atoms: _748  and  _749
REMARK  301  A    between atoms: _748  and  _751
REMARK  302  A    between atoms: _751  and  _752
REMARK  303  A    between atoms: _752  and  _753
REMARK  304  A    between atoms: _756  and  _758
REMARK  305  A    between atoms: _758  and  _759
REMARK  306  A    between atoms: _758  and  _761
REMARK  307  A    between atoms: _761  and  _762
REMARK                            x       y       z     vdW  Elec       q    Type
REMARK                         _______ _______ _______ _____ _____    ______ ____
ROOT
ATOM      1  O   HOH     1     -16.194   9.746 -12.383  0.00  0.00    +0.000 OA
ENDROOT
TORSDOF 0
REMARK  Name = ../refined-set-2016/4v24/4v24_pocket.pdb
REMARK  307 active torsions:
REMARK  status: ('A' for Active; 'I' for Inactive)
REMARK    1  A    between atoms: _1  and  _3
REMARK    2  A    between atoms: _3  and  _4
REMARK    3  A    between atoms: _6  and  _8
REMARK    4  A    between atoms: _8  and  _9
REMARK    5  A    between atoms: _8  and  _11
REMARK    6  A    between atoms: _11  and  _12
REMARK    7  A    between atoms: _15  and  _17
REMARK    8  A    between atoms: _17  and  _18
REMARK    9  A    between atoms: _20  and  _22
REMARK   10  A    between atoms: _22  and  _23
REMARK   11  A    between atoms: _25  and  _27
REMARK   12  A    between atoms: _27  and  _28
REMARK   13  A    between atoms: _27  and  _30
REMARK   14  A    between atoms: _30  and  _31
REMARK   15  A    between atoms: _36  and  _38
REMARK   16  A    between atoms: _38  and  _39
REMARK   17  A    between atoms: _42  and  _44
REMARK   18  A    between atoms: _44  and  _45
REMARK   19  A    between atoms: _44  and  _47
REMARK   20  A    between atoms: _47  and  _48
REMARK   21  A    between atoms: _51  and  _53
REMARK   22  A    between atoms: _53  and  _54
REMARK   23  A    between atoms: _53  and  _56
REMARK   24  A    between atoms: _56  and  _57
REMARK   25  A    between atoms: _60  and  _62
REMARK   26  A    between atoms: _62  and  _63
REMARK   27  A    between atoms: _62  and  _65
REMARK   28  A    between atoms: _65  and  _66
REMARK   29  A    between atoms: _68  and  _70
REMARK   30  A    between atoms: _70  and  _71
REMARK   31  A    between atoms: _70  and  _73
REMARK   32  A    between atoms: _73  and  _74
REMARK   33  A    between atoms: _77  and  _79
REMARK   34  A    between atoms: _79  and  _80
REMARK   35  A    between atoms: _83  and  _85
REMARK   36  A    between atoms: _85  and  _86
REMARK   37  A    between atoms: _85  and  _88
REMARK   38  A    between atoms: _88  and  _89
REMARK   39  A    between atoms: _99  and  _101
REMARK   40  A    between atoms: _101  and  _102
REMARK   41  A    between atoms: _101  and  _104
REMARK   42  A    between atoms: _104  and  _105
REMARK   43  A    between atoms: _111  and  _113
REMARK   44  A    between atoms: _113  and  _114
REMARK   45  A    between atoms: _113  and  _116
REMARK   46  A    between atoms: _116  and  _117
REMARK   47  A    between atoms: _120  and  _122
REMARK   48  A    between atoms: _122  and  _123
REMARK   49  A    between atoms: _126  and  _128
REMARK   50  A    between atoms: _128  and  _129
REMARK   51  A    between atoms: _128  and  _131
REMARK   52  A    between atoms: _131  and  _132
REMARK   53  A    between atoms: _135  and  _137
REMARK   54  A    between atoms: _137  and  _138
REMARK   55  A    between atoms: _137  and  _140
REMARK   56  A    between atoms: _143  and  _145
REMARK   57  A    between atoms: _145  and  _146
REMARK   58  A    between atoms: _145  and  _148
REMARK   59  A    between atoms: _148  and  _149
REMARK   60  A    between atoms: _152  and  _154
REMARK   61  A    between atoms: _154  and  _155
REMARK   62  A    between atoms: _154  and  _157
REMARK   63  A    between atoms: _157  and  _158
REMARK   64  A    between atoms: _161  and  _163
REMARK   65  A    between atoms: _163  and  _164
REMARK   66  A    between atoms: _163  and  _166
REMARK   67  A    between atoms: _166  and  _167
REMARK   68  A    between atoms: _169  and  _171
REMARK   69  A    between atoms: _171  and  _172
REMARK   70  A    between atoms: _171  and  _174
REMARK   71  A    between atoms: _174  and  _175
REMARK   72  A    between atoms: _175  and  _176
REMARK   73  A    between atoms: _179  and  _181
REMARK   74  A    between atoms: _181  and  _182
REMARK   75  A    between atoms: _181  and  _184
REMARK   76  A    between atoms: _184  and  _185
REMARK   77  A    between atoms: _185  and  _186
REMARK   78  A    between atoms: _186  and  _187
REMARK   79  A    between atoms: _196  and  _198
REMARK   80  A    between atoms: _198  and  _199
REMARK   81  A    between atoms: _198  and  _201
REMARK   82  A    between atoms: _201  and  _202
REMARK   83  A    between atoms: _208  and  _210
REMARK   84  A    between atoms: _210  and  _211
REMARK   85  A    between atoms: _210  and  _213
REMARK   86  A    between atoms: _213  and  _214
REMARK   87  A    between atoms: _217  and  _219
REMARK   88  A    between atoms: _219  and  _220
REMARK   89  A    between atoms: _222  and  _224
REMARK   90  A    between atoms: _224  and  _225
REMARK   91  A    between atoms: _224  and  _227
REMARK   92  A    between atoms: _227  and  _228
REMARK   93  A    between atoms: _231  and  _233
REMARK   94  A    between atoms: _233  and  _234
REMARK   95  A    between atoms: _233  and  _236
REMARK   96  A    between atoms: _236  and  _237
REMARK   97  A    between atoms: _243  and  _245
REMARK   98  A    between atoms: _245  and  _246
REMARK   99  A    between atoms: _245  and  _248
REMARK  100  A    between atoms: _248  and  _249
REMARK  101  A    between atoms: _249  and  _250
REMARK  102  A    between atoms: _250  and  _251
REMARK  103  A    between atoms: _260  and  _262
REMARK  104  A    between atoms: _262  and  _263
REMARK  105  A    between atoms: _262  and  _265
REMARK  106  A    between atoms: _265  and  _266
REMARK  107  A    between atoms: _269  and  _271
REMARK  108  A    between atoms: _271  and  _272
REMARK  109  A    between atoms: _271  and  _274
REMARK  110  A    between atoms: _274  and  _275
REMARK  111  A    between atoms: _278  and  _280
REMARK  112  A    between atoms: _280  and  _281
REMARK  113  A    between atoms: _280  and  _283
REMARK  114  A    between atoms: _286  and  _288
REMARK  115  A    between atoms: _288  and  _289
REMARK  116  A    between atoms: _288  and  _291
REMARK  117  A    between atoms: _291  and  _292
REMARK  118  A    between atoms: _295  and  _297
REMARK  119  A    between atoms: _297  and  _298
REMARK  120  A    between atoms: _297  and  _300
REMARK  121  A    between atoms: _303  and  _305
REMARK  122  A    between atoms: _305  and  _306
REMARK  123  A    between atoms: _305  and  _308
REMARK  124  A    between atoms: _308  and  _309
REMARK  125  A    between atoms: _312  and  _314
REMARK  126  A    between atoms: _314  and  _315
REMARK  127  A    between atoms: _318  and  _320
REMARK  128  A    between atoms: _320  and  _321
REMARK  129  A    between atoms: _320  and  _323
REMARK  130  A    between atoms: _323  and  _324
REMARK  131  A    between atoms: _327  and  _329
REMARK  132  A    between atoms: _329  and  _330
REMARK  133  A    between atoms: _329  and  _332
REMARK  134  A    between atoms: _332  and  _333
REMARK  135  A    between atoms: _335  and  _337
REMARK  136  A    between atoms: _337  and  _338
REMARK  137  A    between atoms: _337  and  _340
REMARK  138  A    between atoms: _340  and  _341
REMARK  139  A    between atoms: _346  and  _348
REMARK  140  A    between atoms: _348  and  _349
REMARK  141  A    between atoms: _348  and  _351
REMARK  142  A    between atoms: _351  and  _352
REMARK  143  A    between atoms: _355  and  _357
REMARK  144  A    between atoms: _357  and  _358
REMARK  145  A    between atoms: _360  and  _362
REMARK  146  A    between atoms: _362  and  _363
REMARK  147  A    between atoms: _362  and  _365
REMARK  148  A    between atoms: _365  and  _366
REMARK  149  A    between atoms: _368  and  _370
REMARK  150  A    between atoms: _370  and  _371
REMARK  151  A    between atoms: _370  and  _373
REMARK  152  A    between atoms: _373  and  _374
REMARK  153  A    between atoms: _374  and  _375
REMARK  154  A    between atoms: _377  and  _379
REMARK  155  A    between atoms: _379  and  _380
REMARK  156  A    between atoms: _379  and  _382
REMARK  157  A    between atoms: _382  and  _383
REMARK  158  A    between atoms: _389  and  _391
REMARK  159  A    between atoms: _391  and  _392
REMARK  160  A    between atoms: _395  and  _397
REMARK  161  A    between atoms: _397  and  _398
REMARK  162  A    between atoms: _402  and  _403
REMARK  163  A    between atoms: _408  and  _410
REMARK  164  A    between atoms: _410  and  _411
REMARK  165  A    between atoms: _410  and  _413
REMARK  166  A    between atoms: _413  and  _414
REMARK  167  A    between atoms: _414  and  _415
REMARK  168  A    between atoms: _417  and  _419
REMARK  169  A    between atoms: _419  and  _420
REMARK  170  A    between atoms: _419  and  _422
REMARK  171  A    between atoms: _422  and  _423
REMARK  172  A    between atoms: _428  and  _430
REMARK  173  A    between atoms: _430  and  _431
REMARK  174  A    between atoms: _430  and  _433
REMARK  175  A    between atoms: _433  and  _434
REMARK  176  A    between atoms: _437  and  _439
REMARK  177  A    between atoms: _439  and  _440
REMARK  178  A    between atoms: _439  and  _442
REMARK  179  A    between atoms: _442  and  _443
REMARK  180  A    between atoms: _449  and  _451
REMARK  181  A    between atoms: _451  and  _452
REMARK  182  A    between atoms: _451  and  _454
REMARK  183  A    between atoms: _454  and  _455
REMARK  184  A    between atoms: _460  and  _461
REMARK  185  A    between atoms: _463  and  _465
REMARK  186  A    between atoms: _465  and  _466
REMARK  187  A    between atoms: _465  and  _468
REMARK  188  A    between atoms: _471  and  _473
REMARK  189  A    between atoms: _473  and  _474
REMARK  190  A    between atoms: _473  and  _476
REMARK  191  A    between atoms: _479  and  _481
REMARK  192  A    between atoms: _481  and  _482
REMARK  193  A    between atoms: _481  and  _484
REMARK  194  A    between atoms: _484  and  _485
REMARK  195  A    between atoms: _487  and  _489
REMARK  196  A    between atoms: _489  and  _490
REMARK  197  A    between atoms: _489  and  _492
REMARK  198  A    between atoms: _492  and  _493
REMARK  199  A    between atoms: _493  and  _494
REMARK  200  A    between atoms: _494  and  _495
REMARK  201  A    between atoms: _504  and  _506
REMARK  202  A    between atoms: _506  and  _507
REMARK  203  A    between atoms: _506  and  _509
REMARK  204  A    between atoms: _509  and  _510
REMARK  205  A    between atoms: _510  and  _511
REMARK  206  A    between atoms: _513  and  _515
REMARK  207  A    between atoms: _515  and  _516
REMARK  208  A    between atoms: _515  and  _518
REMARK  209  A    between atoms: _518  and  _519
REMARK  210  A    between atoms: _522  and  _524
REMARK  211  A    between atoms: _524  and  _525
REMARK  212  A    between atoms: _524  and  _527
REMARK  213  A    between atoms: _527  and  _528
REMARK  214  A    between atoms: _531  and  _533
REMARK  215  A    between atoms: _533  and  _534
REMARK  216  A    between atoms: _533  and  _536
REMARK  217  A    between atoms: _536  and  _537
REMARK  218  A    between atoms: _537  and  _538
REMARK  219  A    between atoms: _538  and  _539
REMARK  220  A    between atoms: _548  and  _550
REMARK  221  A    between atoms: _550  and  _551
REMARK  222  A    between atoms: _550  and  _553
REMARK  223  A    between atoms: _553  and  _554
REMARK  224  A    between atoms: _557  and  _559
REMARK  225  A    between atoms: _559  and  _560
REMARK  226  A    between atoms: _559  and  _562
REMARK  227  A    between atoms: _562  and  _563
REMARK  228  A    between atoms: _569  and  _571
REMARK  229  A    between atoms: _571  and  _572
REMARK  230  A    between atoms: _571  and  _574
REMARK  231  A    between atoms: _574  and  _575
REMARK  232  A    between atoms: _578  and  _580
REMARK  233  A    between atoms: _580  and  _581
REMARK  234  A    between atoms: _584  and  _586
REMARK  235  A    between atoms: _586  and  _587
REMARK  236  A    between atoms: _586  and  _589
REMARK  237  A    between atoms: _589  and  _590
REMARK  238  A    between atoms: _590  and  _591
REMARK  239  A    between atoms: _593  and  _595
REMARK  240  A    between atoms: _595  and  _596
REMARK  241  A    between atoms: _595  and  _598
REMARK  242  A    between atoms: _598  and  _599
REMARK  243  A    between atoms: _599  and  _600
REMARK  244  A    between atoms: _603  and  _605
REMARK  245  A    between atoms: _605  and  _606
REMARK  246  A    between atoms: _605  and  _608
REMARK  247  A    between atoms: _608  and  _609
REMARK  248  A    between atoms: _609  and  _610
REMARK  249  A    between atoms: _610  and  _611
REMARK  250  A    between atoms: _620  and  _622
REMARK  251  A    between atoms: _622  and  _623
REMARK  252  A    between atoms: _622  and  _625
REMARK  253  A    between atoms: _625  and  _626
REMARK  254  A    between atoms: _631  and  _633
REMARK  255  A    between atoms: _633  and  _634
REMARK  256  A    between atoms: _633  and  _636
REMARK  257  A    between atoms: _636  and  _637
REMARK  258  A    between atoms: _637  and  _638
REMARK  259  A    between atoms: _640  and  _642
REMARK  260  A    between atoms: _642  and  _643
REMARK  261  A    between atoms: _642  and  _645
REMARK  262  A    between atoms: _645  and  _646
REMARK  263  A    between atoms: _651  and  _652
REMARK  264  A    between atoms: _654  and  _656
REMARK  265  A    between atoms: _656  and  _657
REMARK  266  A    between atoms: _656  and  _659
REMARK  267  A    between atoms: _661  and  _663
REMARK  268  A    between atoms: _663  and  _664
REMARK  269  A    between atoms: _663  and  _666
REMARK  270  A    between atoms: _666  and  _667
REMARK  271  A    between atoms: _672  and  _673
REMARK  272  A    between atoms: _675  and  _677
REMARK  273  A    between atoms: _677  and  _678
REMARK  274  A    between atoms: _677  and  _680
REMARK  275  A    between atoms: _680  and  _681
REMARK  276  A    between atoms: _684  and  _686
REMARK  277  A    between atoms: _686  and  _687
REMARK  278  A    between atoms: _686  and  _689
REMARK  279  A    between atoms: _692  and  _694
REMARK  280  A    between atoms: _694  and  _695
REMARK  281  A    between atoms: _694  and  _697
REMARK  282  A    between atoms: _697  and  _698
REMARK  283  A    between atoms: _703  and  _704
REMARK  284  A    between atoms: _706  and  _708
REMARK  285  A    between atoms: _708  and  _709
REMARK  286  A    between atoms: _708  and  _711
REMARK  287  A    between atoms: _711  and  _712
REMARK  288  A    between atoms: _718  and  _720
REMARK  289  A    between atoms: _720  and  _721
REMARK  290  A    between atoms: _724  and  _726
REMARK  291  A    between atoms: _726  and  _727
REMARK  292  A    between atoms: _726  and  _729
REMARK  293  A    between atoms: _732  and  _734
REMARK  294  A    between atoms: _734  and  _735
REMARK  295  A    between atoms: _734  and  _737
REMARK  296  A    between atoms: _737  and  _738
REMARK  297  A    between atoms: _741  and  _743
REMARK  298  A    between atoms: _743  and  _744
REMARK  299  A    between atoms: _746  and  _748
REMARK  300  A    between atoms: _748  and  _749
REMARK  301  A    between atoms: _748  and  _751
REMARK  302  A    between atoms: _751  and  _752
REMARK  303  A    between atoms: _752  and  _753
REMARK  304  A    between atoms: _756  and  _758
REMARK  305  A    between atoms: _758  and  _759
REMARK  306  A    between atoms: _758  and  _761
REMARK  307  A    between atoms: _761  and  _762
REMARK                            x       y       z     vdW  Elec       q    Type
REMARK                         _______ _______ _______ _____ _____    ______ ____
ROOT
ATOM      1  O   HOH     1     -29.114   4.212  -7.592  0.00  0.00    +0.000 OA
ENDROOT
TORSDOF 0
REMARK  Name = ../refined-set-2016/4v24/4v24_pocket.pdb
REMARK  307 active torsions:
REMARK  status: ('A' for Active; 'I' for Inactive)
REMARK    1  A    between atoms: _1  and  _3
REMARK    2  A    between atoms: _3  and  _4
REMARK    3  A    between atoms: _6  and  _8
REMARK    4  A    between atoms: _8  and  _9
REMARK    5  A    between atoms: _8  and  _11
REMARK    6  A    between atoms: _11  and  _12
REMARK    7  A    between atoms: _15  and  _17
REMARK    8  A    between atoms: _17  and  _18
REMARK    9  A    between atoms: _20  and  _22
REMARK   10  A    between atoms: _22  and  _23
REMARK   11  A    between atoms: _25  and  _27
REMARK   12  A    between atoms: _27  and  _28
REMARK   13  A    between atoms: _27  and  _30
REMARK   14  A    between atoms: _30  and  _31
REMARK   15  A    between atoms: _36  and  _38
REMARK   16  A    between atoms: _38  and  _39
REMARK   17  A    between atoms: _42  and  _44
REMARK   18  A    between atoms: _44  and  _45
REMARK   19  A    between atoms: _44  and  _47
REMARK   20  A    between atoms: _47  and  _48
REMARK   21  A    between atoms: _51  and  _53
REMARK   22  A    between atoms: _53  and  _54
REMARK   23  A    between atoms: _53  and  _56
REMARK   24  A    between atoms: _56  and  _57
REMARK   25  A    between atoms: _60  and  _62
REMARK   26  A    between atoms: _62  and  _63
REMARK   27  A    between atoms: _62  and  _65
REMARK   28  A    between atoms: _65  and  _66
REMARK   29  A    between atoms: _68  and  _70
REMARK   30  A    between atoms: _70  and  _71
REMARK   31  A    between atoms: _70  and  _73
REMARK   32  A    between atoms: _73  and  _74
REMARK   33  A    between atoms: _77  and  _79
REMARK   34  A    between atoms: _79  and  _80
REMARK   35  A    between atoms: _83  and  _85
REMARK   36  A    between atoms: _85  and  _86
REMARK   37  A    between atoms: _85  and  _88
REMARK   38  A    between atoms: _88  and  _89
REMARK   39  A    between atoms: _99  and  _101
REMARK   40  A    between atoms: _101  and  _102
REMARK   41  A    between atoms: _101  and  _104
REMARK   42  A    between atoms: _104  and  _105
REMARK   43  A    between atoms: _111  and  _113
REMARK   44  A    between atoms: _113  and  _114
REMARK   45  A    between atoms: _113  and  _116
REMARK   46  A    between atoms: _116  and  _117
REMARK   47  A    between atoms: _120  and  _122
REMARK   48  A    between atoms: _122  and  _123
REMARK   49  A    between atoms: _126  and  _128
REMARK   50  A    between atoms: _128  and  _129
REMARK   51  A    between atoms: _128  and  _131
REMARK   52  A    between atoms: _131  and  _132
REMARK   53  A    between atoms: _135  and  _137
REMARK   54  A    between atoms: _137  and  _138
REMARK   55  A    between atoms: _137  and  _140
REMARK   56  A    between atoms: _143  and  _145
REMARK   57  A    between atoms: _145  and  _146
REMARK   58  A    between atoms: _145  and  _148
REMARK   59  A    between atoms: _148  and  _149
REMARK   60  A    between atoms: _152  and  _154
REMARK   61  A    between atoms: _154  and  _155
REMARK   62  A    between atoms: _154  and  _157
REMARK   63  A    between atoms: _157  and  _158
REMARK   64  A    between atoms: _161  and  _163
REMARK   65  A    between atoms: _163  and  _164
REMARK   66  A    between atoms: _163  and  _166
REMARK   67  A    between atoms: _166  and  _167
REMARK   68  A    between atoms: _169  and  _171
REMARK   69  A    between atoms: _171  and  _172
REMARK   70  A    between atoms: _171  and  _174
REMARK   71  A    between atoms: _174  and  _175
REMARK   72  A    between atoms: _175  and  _176
REMARK   73  A    between atoms: _179  and  _181
REMARK   74  A    between atoms: _181  and  _182
REMARK   75  A    between atoms: _181  and  _184
REMARK   76  A    between atoms: _184  and  _185
REMARK   77  A    between atoms: _185  and  _186
REMARK   78  A    between atoms: _186  and  _187
REMARK   79  A    between atoms: _196  and  _198
REMARK   80  A    between atoms: _198  and  _199
REMARK   81  A    between atoms: _198  and  _201
REMARK   82  A    between atoms: _201  and  _202
REMARK   83  A    between atoms: _208  and  _210
REMARK   84  A    between atoms: _210  and  _211
REMARK   85  A    between atoms: _210  and  _213
REMARK   86  A    between atoms: _213  and  _214
REMARK   87  A    between atoms: _217  and  _219
REMARK   88  A    between atoms: _219  and  _220
REMARK   89  A    between atoms: _222  and  _224
REMARK   90  A    between atoms: _224  and  _225
REMARK   91  A    between atoms: _224  and  _227
REMARK   92  A    between atoms: _227  and  _228
REMARK   93  A    between atoms: _231  and  _233
REMARK   94  A    between atoms: _233  and  _234
REMARK   95  A    between atoms: _233  and  _236
REMARK   96  A    between atoms: _236  and  _237
REMARK   97  A    between atoms: _243  and  _245
REMARK   98  A    between atoms: _245  and  _246
REMARK   99  A    between atoms: _245  and  _248
REMARK  100  A    between atoms: _248  and  _249
REMARK  101  A    between atoms: _249  and  _250
REMARK  102  A    between atoms: _250  and  _251
REMARK  103  A    between atoms: _260  and  _262
REMARK  104  A    between atoms: _262  and  _263
REMARK  105  A    between atoms: _262  and  _265
REMARK  106  A    between atoms: _265  and  _266
REMARK  107  A    between atoms: _269  and  _271
REMARK  108  A    between atoms: _271  and  _272
REMARK  109  A    between atoms: _271  and  _274
REMARK  110  A    between atoms: _274  and  _275
REMARK  111  A    between atoms: _278  and  _280
REMARK  112  A    between atoms: _280  and  _281
REMARK  113  A    between atoms: _280  and  _283
REMARK  114  A    between atoms: _286  and  _288
REMARK  115  A    between atoms: _288  and  _289
REMARK  116  A    between atoms: _288  and  _291
REMARK  117  A    between atoms: _291  and  _292
REMARK  118  A    between atoms: _295  and  _297
REMARK  119  A    between atoms: _297  and  _298
REMARK  120  A    between atoms: _297  and  _300
REMARK  121  A    between atoms: _303  and  _305
REMARK  122  A    between atoms: _305  and  _306
REMARK  123  A    between atoms: _305  and  _308
REMARK  124  A    between atoms: _308  and  _309
REMARK  125  A    between atoms: _312  and  _314
REMARK  126  A    between atoms: _314  and  _315
REMARK  127  A    between atoms: _318  and  _320
REMARK  128  A    between atoms: _320  and  _321
REMARK  129  A    between atoms: _320  and  _323
REMARK  130  A    between atoms: _323  and  _324
REMARK  131  A    between atoms: _327  and  _329
REMARK  132  A    between atoms: _329  and  _330
REMARK  133  A    between atoms: _329  and  _332
REMARK  134  A    between atoms: _332  and  _333
REMARK  135  A    between atoms: _335  and  _337
REMARK  136  A    between atoms: _337  and  _338
REMARK  137  A    between atoms: _337  and  _340
REMARK  138  A    between atoms: _340  and  _341
REMARK  139  A    between atoms: _346  and  _348
REMARK  140  A    between atoms: _348  and  _349
REMARK  141  A    between atoms: _348  and  _351
REMARK  142  A    between atoms: _351  and  _352
REMARK  143  A    between atoms: _355  and  _357
REMARK  144  A    between atoms: _357  and  _358
REMARK  145  A    between atoms: _360  and  _362
REMARK  146  A    between atoms: _362  and  _363
REMARK  147  A    between atoms: _362  and  _365
REMARK  148  A    between atoms: _365  and  _366
REMARK  149  A    between atoms: _368  and  _370
REMARK  150  A    between atoms: _370  and  _371
REMARK  151  A    between atoms: _370  and  _373
REMARK  152  A    between atoms: _373  and  _374
REMARK  153  A    between atoms: _374  and  _375
REMARK  154  A    between atoms: _377  and  _379
REMARK  155  A    between atoms: _379  and  _380
REMARK  156  A    between atoms: _379  and  _382
REMARK  157  A    between atoms: _382  and  _383
REMARK  158  A    between atoms: _389  and  _391
REMARK  159  A    between atoms: _391  and  _392
REMARK  160  A    between atoms: _395  and  _397
REMARK  161  A    between atoms: _397  and  _398
REMARK  162  A    between atoms: _402  and  _403
REMARK  163  A    between atoms: _408  and  _410
REMARK  164  A    between atoms: _410  and  _411
REMARK  165  A    between atoms: _410  and  _413
REMARK  166  A    between atoms: _413  and  _414
REMARK  167  A    between atoms: _414  and  _415
REMARK  168  A    between atoms: _417  and  _419
REMARK  169  A    between atoms: _419  and  _420
REMARK  170  A    between atoms: _419  and  _422
REMARK  171  A    between atoms: _422  and  _423
REMARK  172  A    between atoms: _428  and  _430
REMARK  173  A    between atoms: _430  and  _431
REMARK  174  A    between atoms: _430  and  _433
REMARK  175  A    between atoms: _433  and  _434
REMARK  176  A    between atoms: _437  and  _439
REMARK  177  A    between atoms: _439  and  _440
REMARK  178  A    between atoms: _439  and  _442
REMARK  179  A    between atoms: _442  and  _443
REMARK  180  A    between atoms: _449  and  _451
REMARK  181  A    between atoms: _451  and  _452
REMARK  182  A    between atoms: _451  and  _454
REMARK  183  A    between atoms: _454  and  _455
REMARK  184  A    between atoms: _460  and  _461
REMARK  185  A    between atoms: _463  and  _465
REMARK  186  A    between atoms: _465  and  _466
REMARK  187  A    between atoms: _465  and  _468
REMARK  188  A    between atoms: _471  and  _473
REMARK  189  A    between atoms: _473  and  _474
REMARK  190  A    between atoms: _473  and  _476
REMARK  191  A    between atoms: _479  and  _481
REMARK  192  A    between atoms: _481  and  _482
REMARK  193  A    between atoms: _481  and  _484
REMARK  194  A    between atoms: _484  and  _485
REMARK  195  A    between atoms: _487  and  _489
REMARK  196  A    between atoms: _489  and  _490
REMARK  197  A    between atoms: _489  and  _492
REMARK  198  A    between atoms: _492  and  _493
REMARK  199  A    between atoms: _493  and  _494
REMARK  200  A    between atoms: _494  and  _495
REMARK  201  A    between atoms: _504  and  _506
REMARK  202  A    between atoms: _506  and  _507
REMARK  203  A    between atoms: _506  and  _509
REMARK  204  A    between atoms: _509  and  _510
REMARK  205  A    between atoms: _510  and  _511
REMARK  206  A    between atoms: _513  and  _515
REMARK  207  A    between atoms: _515  and  _516
REMARK  208  A    between atoms: _515  and  _518
REMARK  209  A    between atoms: _518  and  _519
REMARK  210  A    between atoms: _522  and  _524
REMARK  211  A    between atoms: _524  and  _525
REMARK  212  A    between atoms: _524  and  _527
REMARK  213  A    between atoms: _527  and  _528
REMARK  214  A    between atoms: _531  and  _533
REMARK  215  A    between atoms: _533  and  _534
REMARK  216  A    between atoms: _533  and  _536
REMARK  217  A    between atoms: _536  and  _537
REMARK  218  A    between atoms: _537  and  _538
REMARK  219  A    between atoms: _538  and  _539
REMARK  220  A    between atoms: _548  and  _550
REMARK  221  A    between atoms: _550  and  _551
REMARK  222  A    between atoms: _550  and  _553
REMARK  223  A    between atoms: _553  and  _554
REMARK  224  A    between atoms: _557  and  _559
REMARK  225  A    between atoms: _559  and  _560
REMARK  226  A    between atoms: _559  and  _562
REMARK  227  A    between atoms: _562  and  _563
REMARK  228  A    between atoms: _569  and  _571
REMARK  229  A    between atoms: _571  and  _572
REMARK  230  A    between atoms: _571  and  _574
REMARK  231  A    between atoms: _574  and  _575
REMARK  232  A    between atoms: _578  and  _580
REMARK  233  A    between atoms: _580  and  _581
REMARK  234  A    between atoms: _584  and  _586
REMARK  235  A    between atoms: _586  and  _587
REMARK  236  A    between atoms: _586  and  _589
REMARK  237  A    between atoms: _589  and  _590
REMARK  238  A    between atoms: _590  and  _591
REMARK  239  A    between atoms: _593  and  _595
REMARK  240  A    between atoms: _595  and  _596
REMARK  241  A    between atoms: _595  and  _598
REMARK  242  A    between atoms: _598  and  _599
REMARK  243  A    between atoms: _599  and  _600
REMARK  244  A    between atoms: _603  and  _605
REMARK  245  A    between atoms: _605  and  _606
REMARK  246  A    between atoms: _605  and  _608
REMARK  247  A    between atoms: _608  and  _609
REMARK  248  A    between atoms: _609  and  _610
REMARK  249  A    between atoms: _610  and  _611
REMARK  250  A    between atoms: _620  and  _622
REMARK  251  A    between atoms: _622  and  _623
REMARK  252  A    between atoms: _622  and  _625
REMARK  253  A    between atoms: _625  and  _626
REMARK  254  A    between atoms: _631  and  _633
REMARK  255  A    between atoms: _633  and  _634
REMARK  256  A    between atoms: _633  and  _636
REMARK  257  A    between atoms: _636  and  _637
REMARK  258  A    between atoms: _637  and  _638
REMARK  259  A    between atoms: _640  and  _642
REMARK  260  A    between atoms: _642  and  _643
REMARK  261  A    between atoms: _642  and  _645
REMARK  262  A    between atoms: _645  and  _646
REMARK  263  A    between atoms: _651  and  _652
REMARK  264  A    between atoms: _654  and  _656
REMARK  265  A    between atoms: _656  and  _657
REMARK  266  A    between atoms: _656  and  _659
REMARK  267  A    between atoms: _661  and  _663
REMARK  268  A    between atoms: _663  and  _664
REMARK  269  A    between atoms: _663  and  _666
REMARK  270  A    between atoms: _666  and  _667
REMARK  271  A    between atoms: _672  and  _673
REMARK  272  A    between atoms: _675  and  _677
REMARK  273  A    between atoms: _677  and  _678
REMARK  274  A    between atoms: _677  and  _680
REMARK  275  A    between atoms: _680  and  _681
REMARK  276  A    between atoms: _684  and  _686
REMARK  277  A    between atoms: _686  and  _687
REMARK  278  A    between atoms: _686  and  _689
REMARK  279  A    between atoms: _692  and  _694
REMARK  280  A    between atoms: _694  and  _695
REMARK  281  A    between atoms: _694  and  _697
REMARK  282  A    between atoms: _697  and  _698
REMARK  283  A    between atoms: _703  and  _704
REMARK  284  A    between atoms: _706  and  _708
REMARK  285  A    between atoms: _708  and  _709
REMARK  286  A    between atoms: _708  and  _711
REMARK  287  A    between atoms: _711  and  _712
REMARK  288  A    between atoms: _718  and  _720
REMARK  289  A    between atoms: _720  and  _721
REMARK  290  A    between atoms: _724  and  _726
REMARK  291  A    between atoms: _726  and  _727
REMARK  292  A    between atoms: _726  and  _729
REMARK  293  A    between atoms: _732  and  _734
REMARK  294  A    between atoms: _734  and  _735
REMARK  295  A    between atoms: _734  and  _737
REMARK  296  A    between atoms: _737  and  _738
REMARK  297  A    between atoms: _741  and  _743
REMARK  298  A    between atoms: _743  and  _744
REMARK  299  A    between atoms: _746  and  _748
REMARK  300  A    between atoms: _748  and  _749
REMARK  301  A    between atoms: _748  and  _751
REMARK  302  A    between atoms: _751  and  _752
REMARK  303  A    between atoms: _752  and  _753
REMARK  304  A    between atoms: _756  and  _758
REMARK  305  A    between atoms: _758  and  _759
REMARK  306  A    between atoms: _758  and  _761
REMARK  307  A    between atoms: _761  and  _762
REMARK                            x       y       z     vdW  Elec       q    Type
REMARK                         _______ _______ _______ _____ _____    ______ ____
ROOT
ATOM      1  O   HOH     1     -23.824   0.833  -9.009  0.00  0.00    +0.000 OA
ENDROOT
TORSDOF 0
REMARK  Name = ../refined-set-2016/4v24/4v24_pocket.pdb
REMARK  307 active torsions:
REMARK  status: ('A' for Active; 'I' for Inactive)
REMARK    1  A    between atoms: _1  and  _3
REMARK    2  A    between atoms: _3  and  _4
REMARK    3  A    between atoms: _6  and  _8
REMARK    4  A    between atoms: _8  and  _9
REMARK    5  A    between atoms: _8  and  _11
REMARK    6  A    between atoms: _11  and  _12
REMARK    7  A    between atoms: _15  and  _17
REMARK    8  A    between atoms: _17  and  _18
REMARK    9  A    between atoms: _20  and  _22
REMARK   10  A    between atoms: _22  and  _23
REMARK   11  A    between atoms: _25  and  _27
REMARK   12  A    between atoms: _27  and  _28
REMARK   13  A    between atoms: _27  and  _30
REMARK   14  A    between atoms: _30  and  _31
REMARK   15  A    between atoms: _36  and  _38
REMARK   16  A    between atoms: _38  and  _39
REMARK   17  A    between atoms: _42  and  _44
REMARK   18  A    between atoms: _44  and  _45
REMARK   19  A    between atoms: _44  and  _47
REMARK   20  A    between atoms: _47  and  _48
REMARK   21  A    between atoms: _51  and  _53
REMARK   22  A    between atoms: _53  and  _54
REMARK   23  A    between atoms: _53  and  _56
REMARK   24  A    between atoms: _56  and  _57
REMARK   25  A    between atoms: _60  and  _62
REMARK   26  A    between atoms: _62  and  _63
REMARK   27  A    between atoms: _62  and  _65
REMARK   28  A    between atoms: _65  and  _66
REMARK   29  A    between atoms: _68  and  _70
REMARK   30  A    between atoms: _70  and  _71
REMARK   31  A    between atoms: _70  and  _73
REMARK   32  A    between atoms: _73  and  _74
REMARK   33  A    between atoms: _77  and  _79
REMARK   34  A    between atoms: _79  and  _80
REMARK   35  A    between atoms: _83  and  _85
REMARK   36  A    between atoms: _85  and  _86
REMARK   37  A    between atoms: _85  and  _88
REMARK   38  A    between atoms: _88  and  _89
REMARK   39  A    between atoms: _99  and  _101
REMARK   40  A    between atoms: _101  and  _102
REMARK   41  A    between atoms: _101  and  _104
REMARK   42  A    between atoms: _104  and  _105
REMARK   43  A    between atoms: _111  and  _113
REMARK   44  A    between atoms: _113  and  _114
REMARK   45  A    between atoms: _113  and  _116
REMARK   46  A    between atoms: _116  and  _117
REMARK   47  A    between atoms: _120  and  _122
REMARK   48  A    between atoms: _122  and  _123
REMARK   49  A    between atoms: _126  and  _128
REMARK   50  A    between atoms: _128  and  _129
REMARK   51  A    between atoms: _128  and  _131
REMARK   52  A    between atoms: _131  and  _132
REMARK   53  A    between atoms: _135  and  _137
REMARK   54  A    between atoms: _137  and  _138
REMARK   55  A    between atoms: _137  and  _140
REMARK   56  A    between atoms: _143  and  _145
REMARK   57  A    between atoms: _145  and  _146
REMARK   58  A    between atoms: _145  and  _148
REMARK   59  A    between atoms: _148  and  _149
REMARK   60  A    between atoms: _152  and  _154
REMARK   61  A    between atoms: _154  and  _155
REMARK   62  A    between atoms: _154  and  _157
REMARK   63  A    between atoms: _157  and  _158
REMARK   64  A    between atoms: _161  and  _163
REMARK   65  A    between atoms: _163  and  _164
REMARK   66  A    between atoms: _163  and  _166
REMARK   67  A    between atoms: _166  and  _167
REMARK   68  A    between atoms: _169  and  _171
REMARK   69  A    between atoms: _171  and  _172
REMARK   70  A    between atoms: _171  and  _174
REMARK   71  A    between atoms: _174  and  _175
REMARK   72  A    between atoms: _175  and  _176
REMARK   73  A    between atoms: _179  and  _181
REMARK   74  A    between atoms: _181  and  _182
REMARK   75  A    between atoms: _181  and  _184
REMARK   76  A    between atoms: _184  and  _185
REMARK   77  A    between atoms: _185  and  _186
REMARK   78  A    between atoms: _186  and  _187
REMARK   79  A    between atoms: _196  and  _198
REMARK   80  A    between atoms: _198  and  _199
REMARK   81  A    between atoms: _198  and  _201
REMARK   82  A    between atoms: _201  and  _202
REMARK   83  A    between atoms: _208  and  _210
REMARK   84  A    between atoms: _210  and  _211
REMARK   85  A    between atoms: _210  and  _213
REMARK   86  A    between atoms: _213  and  _214
REMARK   87  A    between atoms: _217  and  _219
REMARK   88  A    between atoms: _219  and  _220
REMARK   89  A    between atoms: _222  and  _224
REMARK   90  A    between atoms: _224  and  _225
REMARK   91  A    between atoms: _224  and  _227
REMARK   92  A    between atoms: _227  and  _228
REMARK   93  A    between atoms: _231  and  _233
REMARK   94  A    between atoms: _233  and  _234
REMARK   95  A    between atoms: _233  and  _236
REMARK   96  A    between atoms: _236  and  _237
REMARK   97  A    between atoms: _243  and  _245
REMARK   98  A    between atoms: _245  and  _246
REMARK   99  A    between atoms: _245  and  _248
REMARK  100  A    between atoms: _248  and  _249
REMARK  101  A    between atoms: _249  and  _250
REMARK  102  A    between atoms: _250  and  _251
REMARK  103  A    between atoms: _260  and  _262
REMARK  104  A    between atoms: _262  and  _263
REMARK  105  A    between atoms: _262  and  _265
REMARK  106  A    between atoms: _265  and  _266
REMARK  107  A    between atoms: _269  and  _271
REMARK  108  A    between atoms: _271  and  _272
REMARK  109  A    between atoms: _271  and  _274
REMARK  110  A    between atoms: _274  and  _275
REMARK  111  A    between atoms: _278  and  _280
REMARK  112  A    between atoms: _280  and  _281
REMARK  113  A    between atoms: _280  and  _283
REMARK  114  A    between atoms: _286  and  _288
REMARK  115  A    between atoms: _288  and  _289
REMARK  116  A    between atoms: _288  and  _291
REMARK  117  A    between atoms: _291  and  _292
REMARK  118  A    between atoms: _295  and  _297
REMARK  119  A    between atoms: _297  and  _298
REMARK  120  A    between atoms: _297  and  _300
REMARK  121  A    between atoms: _303  and  _305
REMARK  122  A    between atoms: _305  and  _306
REMARK  123  A    between atoms: _305  and  _308
REMARK  124  A    between atoms: _308  and  _309
REMARK  125  A    between atoms: _312  and  _314
REMARK  126  A    between atoms: _314  and  _315
REMARK  127  A    between atoms: _318  and  _320
REMARK  128  A    between atoms: _320  and  _321
REMARK  129  A    between atoms: _320  and  _323
REMARK  130  A    between atoms: _323  and  _324
REMARK  131  A    between atoms: _327  and  _329
REMARK  132  A    between atoms: _329  and  _330
REMARK  133  A    between atoms: _329  and  _332
REMARK  134  A    between atoms: _332  and  _333
REMARK  135  A    between atoms: _335  and  _337
REMARK  136  A    between atoms: _337  and  _338
REMARK  137  A    between atoms: _337  and  _340
REMARK  138  A    between atoms: _340  and  _341
REMARK  139  A    between atoms: _346  and  _348
REMARK  140  A    between atoms: _348  and  _349
REMARK  141  A    between atoms: _348  and  _351
REMARK  142  A    between atoms: _351  and  _352
REMARK  143  A    between atoms: _355  and  _357
REMARK  144  A    between atoms: _357  and  _358
REMARK  145  A    between atoms: _360  and  _362
REMARK  146  A    between atoms: _362  and  _363
REMARK  147  A    between atoms: _362  and  _365
REMARK  148  A    between atoms: _365  and  _366
REMARK  149  A    between atoms: _368  and  _370
REMARK  150  A    between atoms: _370  and  _371
REMARK  151  A    between atoms: _370  and  _373
REMARK  152  A    between atoms: _373  and  _374
REMARK  153  A    between atoms: _374  and  _375
REMARK  154  A    between atoms: _377  and  _379
REMARK  155  A    between atoms: _379  and  _380
REMARK  156  A    between atoms: _379  and  _382
REMARK  157  A    between atoms: _382  and  _383
REMARK  158  A    between atoms: _389  and  _391
REMARK  159  A    between atoms: _391  and  _392
REMARK  160  A    between atoms: _395  and  _397
REMARK  161  A    between atoms: _397  and  _398
REMARK  162  A    between atoms: _402  and  _403
REMARK  163  A    between atoms: _408  and  _410
REMARK  164  A    between atoms: _410  and  _411
REMARK  165  A    between atoms: _410  and  _413
REMARK  166  A    between atoms: _413  and  _414
REMARK  167  A    between atoms: _414  and  _415
REMARK  168  A    between atoms: _417  and  _419
REMARK  169  A    between atoms: _419  and  _420
REMARK  170  A    between atoms: _419  and  _422
REMARK  171  A    between atoms: _422  and  _423
REMARK  172  A    between atoms: _428  and  _430
REMARK  173  A    between atoms: _430  and  _431
REMARK  174  A    between atoms: _430  and  _433
REMARK  175  A    between atoms: _433  and  _434
REMARK  176  A    between atoms: _437  and  _439
REMARK  177  A    between atoms: _439  and  _440
REMARK  178  A    between atoms: _439  and  _442
REMARK  179  A    between atoms: _442  and  _443
REMARK  180  A    between atoms: _449  and  _451
REMARK  181  A    between atoms: _451  and  _452
REMARK  182  A    between atoms: _451  and  _454
REMARK  183  A    between atoms: _454  and  _455
REMARK  184  A    between atoms: _460  and  _461
REMARK  185  A    between atoms: _463  and  _465
REMARK  186  A    between atoms: _465  and  _466
REMARK  187  A    between atoms: _465  and  _468
REMARK  188  A    between atoms: _471  and  _473
REMARK  189  A    between atoms: _473  and  _474
REMARK  190  A    between atoms: _473  and  _476
REMARK  191  A    between atoms: _479  and  _481
REMARK  192  A    between atoms: _481  and  _482
REMARK  193  A    between atoms: _481  and  _484
REMARK  194  A    between atoms: _484  and  _485
REMARK  195  A    between atoms: _487  and  _489
REMARK  196  A    between atoms: _489  and  _490
REMARK  197  A    between atoms: _489  and  _492
REMARK  198  A    between atoms: _492  and  _493
REMARK  199  A    between atoms: _493  and  _494
REMARK  200  A    between atoms: _494  and  _495
REMARK  201  A    between atoms: _504  and  _506
REMARK  202  A    between atoms: _506  and  _507
REMARK  203  A    between atoms: _506  and  _509
REMARK  204  A    between atoms: _509  and  _510
REMARK  205  A    between atoms: _510  and  _511
REMARK  206  A    between atoms: _513  and  _515
REMARK  207  A    between atoms: _515  and  _516
REMARK  208  A    between atoms: _515  and  _518
REMARK  209  A    between atoms: _518  and  _519
REMARK  210  A    between atoms: _522  and  _524
REMARK  211  A    between atoms: _524  and  _525
REMARK  212  A    between atoms: _524  and  _527
REMARK  213  A    between atoms: _527  and  _528
REMARK  214  A    between atoms: _531  and  _533
REMARK  215  A    between atoms: _533  and  _534
REMARK  216  A    between atoms: _533  and  _536
REMARK  217  A    between atoms: _536  and  _537
REMARK  218  A    between atoms: _537  and  _538
REMARK  219  A    between atoms: _538  and  _539
REMARK  220  A    between atoms: _548  and  _550
REMARK  221  A    between atoms: _550  and  _551
REMARK  222  A    between atoms: _550  and  _553
REMARK  223  A    between atoms: _553  and  _554
REMARK  224  A    between atoms: _557  and  _559
REMARK  225  A    between atoms: _559  and  _560
REMARK  226  A    between atoms: _559  and  _562
REMARK  227  A    between atoms: _562  and  _563
REMARK  228  A    between atoms: _569  and  _571
REMARK  229  A    between atoms: _571  and  _572
REMARK  230  A    between atoms: _571  and  _574
REMARK  231  A    between atoms: _574  and  _575
REMARK  232  A    between atoms: _578  and  _580
REMARK  233  A    between atoms: _580  and  _581
REMARK  234  A    between atoms: _584  and  _586
REMARK  235  A    between atoms: _586  and  _587
REMARK  236  A    between atoms: _586  and  _589
REMARK  237  A    between atoms: _589  and  _590
REMARK  238  A    between atoms: _590  and  _591
REMARK  239  A    between atoms: _593  and  _595
REMARK  240  A    between atoms: _595  and  _596
REMARK  241  A    between atoms: _595  and  _598
REMARK  242  A    between atoms: _598  and  _599
REMARK  243  A    between atoms: _599  and  _600
REMARK  244  A    between atoms: _603  and  _605
REMARK  245  A    between atoms: _605  and  _606
REMARK  246  A    between atoms: _605  and  _608
REMARK  247  A    between atoms: _608  and  _609
REMARK  248  A    between atoms: _609  and  _610
REMARK  249  A    between atoms: _610  and  _611
REMARK  250  A    between atoms: _620  and  _622
REMARK  251  A    between atoms: _622  and  _623
REMARK  252  A    between atoms: _622  and  _625
REMARK  253  A    between atoms: _625  and  _626
REMARK  254  A    between atoms: _631  and  _633
REMARK  255  A    between atoms: _633  and  _634
REMARK  256  A    between atoms: _633  and  _636
REMARK  257  A    between atoms: _636  and  _637
REMARK  258  A    between atoms: _637  and  _638
REMARK  259  A    between atoms: _640  and  _642
REMARK  260  A    between atoms: _642  and  _643
REMARK  261  A    between atoms: _642  and  _645
REMARK  262  A    between atoms: _645  and  _646
REMARK  263  A    between atoms: _651  and  _652
REMARK  264  A    between atoms: _654  and  _656
REMARK  265  A    between atoms: _656  and  _657
REMARK  266  A    between atoms: _656  and  _659
REMARK  267  A    between atoms: _661  and  _663
REMARK  268  A    between atoms: _663  and  _664
REMARK  269  A    between atoms: _663  and  _666
REMARK  270  A    between atoms: _666  and  _667
REMARK  271  A    between atoms: _672  and  _673
REMARK  272  A    between atoms: _675  and  _677
REMARK  273  A    between atoms: _677  and  _678
REMARK  274  A    between atoms: _677  and  _680
REMARK  275  A    between atoms: _680  and  _681
REMARK  276  A    between atoms: _684  and  _686
REMARK  277  A    between atoms: _686  and  _687
REMARK  278  A    between atoms: _686  and  _689
REMARK  279  A    between atoms: _692  and  _694
REMARK  280  A    between atoms: _694  and  _695
REMARK  281  A    between atoms: _694  and  _697
REMARK  282  A    between atoms: _697  and  _698
REMARK  283  A    between atoms: _703  and  _704
REMARK  284  A    between atoms: _706  and  _708
REMARK  285  A    between atoms: _708  and  _709
REMARK  286  A    between atoms: _708  and  _711
REMARK  287  A    between atoms: _711  and  _712
REMARK  288  A    between atoms: _718  and  _720
REMARK  289  A    between atoms: _720  and  _721
REMARK  290  A    between atoms: _724  and  _726
REMARK  291  A    between atoms: _726  and  _727
REMARK  292  A    between atoms: _726  and  _729
REMARK  293  A    between atoms: _732  and  _734
REMARK  294  A    between atoms: _734  and  _735
REMARK  295  A    between atoms: _734  and  _737
REMARK  296  A    between atoms: _737  and  _738
REMARK  297  A    between atoms: _741  and  _743
REMARK  298  A    between atoms: _743  and  _744
REMARK  299  A    between atoms: _746  and  _748
REMARK  300  A    between atoms: _748  and  _749
REMARK  301  A    between atoms: _748  and  _751
REMARK  302  A    between atoms: _751  and  _752
REMARK  303  A    between atoms: _752  and  _753
REMARK  304  A    between atoms: _756  and  _758
REMARK  305  A    between atoms: _758  and  _759
REMARK  306  A    between atoms: _758  and  _761
REMARK  307  A    between atoms: _761  and  _762
REMARK                            x       y       z     vdW  Elec       q    Type
REMARK                         _______ _______ _______ _____ _____    ______ ____
ROOT
ATOM      1  O   HOH     1     -17.069   7.569 -13.658  0.00  0.00    +0.000 OA
ENDROOT
TORSDOF 0
REMARK  Name = ../refined-set-2016/4v24/4v24_pocket.pdb
REMARK  307 active torsions:
REMARK  status: ('A' for Active; 'I' for Inactive)
REMARK    1  A    between atoms: _1  and  _3
REMARK    2  A    between atoms: _3  and  _4
REMARK    3  A    between atoms: _6  and  _8
REMARK    4  A    between atoms: _8  and  _9
REMARK    5  A    between atoms: _8  and  _11
REMARK    6  A    between atoms: _11  and  _12
REMARK    7  A    between atoms: _15  and  _17
REMARK    8  A    between atoms: _17  and  _18
REMARK    9  A    between atoms: _20  and  _22
REMARK   10  A    between atoms: _22  and  _23
REMARK   11  A    between atoms: _25  and  _27
REMARK   12  A    between atoms: _27  and  _28
REMARK   13  A    between atoms: _27  and  _30
REMARK   14  A    between atoms: _30  and  _31
REMARK   15  A    between atoms: _36  and  _38
REMARK   16  A    between atoms: _38  and  _39
REMARK   17  A    between atoms: _42  and  _44
REMARK   18  A    between atoms: _44  and  _45
REMARK   19  A    between atoms: _44  and  _47
REMARK   20  A    between atoms: _47  and  _48
REMARK   21  A    between atoms: _51  and  _53
REMARK   22  A    between atoms: _53  and  _54
REMARK   23  A    between atoms: _53  and  _56
REMARK   24  A    between atoms: _56  and  _57
REMARK   25  A    between atoms: _60  and  _62
REMARK   26  A    between atoms: _62  and  _63
REMARK   27  A    between atoms: _62  and  _65
REMARK   28  A    between atoms: _65  and  _66
REMARK   29  A    between atoms: _68  and  _70
REMARK   30  A    between atoms: _70  and  _71
REMARK   31  A    between atoms: _70  and  _73
REMARK   32  A    between atoms: _73  and  _74
REMARK   33  A    between atoms: _77  and  _79
REMARK   34  A    between atoms: _79  and  _80
REMARK   35  A    between atoms: _83  and  _85
REMARK   36  A    between atoms: _85  and  _86
REMARK   37  A    between atoms: _85  and  _88
REMARK   38  A    between atoms: _88  and  _89
REMARK   39  A    between atoms: _99  and  _101
REMARK   40  A    between atoms: _101  and  _102
REMARK   41  A    between atoms: _101  and  _104
REMARK   42  A    between atoms: _104  and  _105
REMARK   43  A    between atoms: _111  and  _113
REMARK   44  A    between atoms: _113  and  _114
REMARK   45  A    between atoms: _113  and  _116
REMARK   46  A    between atoms: _116  and  _117
REMARK   47  A    between atoms: _120  and  _122
REMARK   48  A    between atoms: _122  and  _123
REMARK   49  A    between atoms: _126  and  _128
REMARK   50  A    between atoms: _128  and  _129
REMARK   51  A    between atoms: _128  and  _131
REMARK   52  A    between atoms: _131  and  _132
REMARK   53  A    between atoms: _135  and  _137
REMARK   54  A    between atoms: _137  and  _138
REMARK   55  A    between atoms: _137  and  _140
REMARK   56  A    between atoms: _143  and  _145
REMARK   57  A    between atoms: _145  and  _146
REMARK   58  A    between atoms: _145  and  _148
REMARK   59  A    between atoms: _148  and  _149
REMARK   60  A    between atoms: _152  and  _154
REMARK   61  A    between atoms: _154  and  _155
REMARK   62  A    between atoms: _154  and  _157
REMARK   63  A    between atoms: _157  and  _158
REMARK   64  A    between atoms: _161  and  _163
REMARK   65  A    between atoms: _163  and  _164
REMARK   66  A    between atoms: _163  and  _166
REMARK   67  A    between atoms: _166  and  _167
REMARK   68  A    between atoms: _169  and  _171
REMARK   69  A    between atoms: _171  and  _172
REMARK   70  A    between atoms: _171  and  _174
REMARK   71  A    between atoms: _174  and  _175
REMARK   72  A    between atoms: _175  and  _176
REMARK   73  A    between atoms: _179  and  _181
REMARK   74  A    between atoms: _181  and  _182
REMARK   75  A    between atoms: _181  and  _184
REMARK   76  A    between atoms: _184  and  _185
REMARK   77  A    between atoms: _185  and  _186
REMARK   78  A    between atoms: _186  and  _187
REMARK   79  A    between atoms: _196  and  _198
REMARK   80  A    between atoms: _198  and  _199
REMARK   81  A    between atoms: _198  and  _201
REMARK   82  A    between atoms: _201  and  _202
REMARK   83  A    between atoms: _208  and  _210
REMARK   84  A    between atoms: _210  and  _211
REMARK   85  A    between atoms: _210  and  _213
REMARK   86  A    between atoms: _213  and  _214
REMARK   87  A    between atoms: _217  and  _219
REMARK   88  A    between atoms: _219  and  _220
REMARK   89  A    between atoms: _222  and  _224
REMARK   90  A    between atoms: _224  and  _225
REMARK   91  A    between atoms: _224  and  _227
REMARK   92  A    between atoms: _227  and  _228
REMARK   93  A    between atoms: _231  and  _233
REMARK   94  A    between atoms: _233  and  _234
REMARK   95  A    between atoms: _233  and  _236
REMARK   96  A    between atoms: _236  and  _237
REMARK   97  A    between atoms: _243  and  _245
REMARK   98  A    between atoms: _245  and  _246
REMARK   99  A    between atoms: _245  and  _248
REMARK  100  A    between atoms: _248  and  _249
REMARK  101  A    between atoms: _249  and  _250
REMARK  102  A    between atoms: _250  and  _251
REMARK  103  A    between atoms: _260  and  _262
REMARK  104  A    between atoms: _262  and  _263
REMARK  105  A    between atoms: _262  and  _265
REMARK  106  A    between atoms: _265  and  _266
REMARK  107  A    between atoms: _269  and  _271
REMARK  108  A    between atoms: _271  and  _272
REMARK  109  A    between atoms: _271  and  _274
REMARK  110  A    between atoms: _274  and  _275
REMARK  111  A    between atoms: _278  and  _280
REMARK  112  A    between atoms: _280  and  _281
REMARK  113  A    between atoms: _280  and  _283
REMARK  114  A    between atoms: _286  and  _288
REMARK  115  A    between atoms: _288  and  _289
REMARK  116  A    between atoms: _288  and  _291
REMARK  117  A    between atoms: _291  and  _292
REMARK  118  A    between atoms: _295  and  _297
REMARK  119  A    between atoms: _297  and  _298
REMARK  120  A    between atoms: _297  and  _300
REMARK  121  A    between atoms: _303  and  _305
REMARK  122  A    between atoms: _305  and  _306
REMARK  123  A    between atoms: _305  and  _308
REMARK  124  A    between atoms: _308  and  _309
REMARK  125  A    between atoms: _312  and  _314
REMARK  126  A    between atoms: _314  and  _315
REMARK  127  A    between atoms: _318  and  _320
REMARK  128  A    between atoms: _320  and  _321
REMARK  129  A    between atoms: _320  and  _323
REMARK  130  A    between atoms: _323  and  _324
REMARK  131  A    between atoms: _327  and  _329
REMARK  132  A    between atoms: _329  and  _330
REMARK  133  A    between atoms: _329  and  _332
REMARK  134  A    between atoms: _332  and  _333
REMARK  135  A    between atoms: _335  and  _337
REMARK  136  A    between atoms: _337  and  _338
REMARK  137  A    between atoms: _337  and  _340
REMARK  138  A    between atoms: _340  and  _341
REMARK  139  A    between atoms: _346  and  _348
REMARK  140  A    between atoms: _348  and  _349
REMARK  141  A    between atoms: _348  and  _351
REMARK  142  A    between atoms: _351  and  _352
REMARK  143  A    between atoms: _355  and  _357
REMARK  144  A    between atoms: _357  and  _358
REMARK  145  A    between atoms: _360  and  _362
REMARK  146  A    between atoms: _362  and  _363
REMARK  147  A    between atoms: _362  and  _365
REMARK  148  A    between atoms: _365  and  _366
REMARK  149  A    between atoms: _368  and  _370
REMARK  150  A    between atoms: _370  and  _371
REMARK  151  A    between atoms: _370  and  _373
REMARK  152  A    between atoms: _373  and  _374
REMARK  153  A    between atoms: _374  and  _375
REMARK  154  A    between atoms: _377  and  _379
REMARK  155  A    between atoms: _379  and  _380
REMARK  156  A    between atoms: _379  and  _382
REMARK  157  A    between atoms: _382  and  _383
REMARK  158  A    between atoms: _389  and  _391
REMARK  159  A    between atoms: _391  and  _392
REMARK  160  A    between atoms: _395  and  _397
REMARK  161  A    between atoms: _397  and  _398
REMARK  162  A    between atoms: _402  and  _403
REMARK  163  A    between atoms: _408  and  _410
REMARK  164  A    between atoms: _410  and  _411
REMARK  165  A    between atoms: _410  and  _413
REMARK  166  A    between atoms: _413  and  _414
REMARK  167  A    between atoms: _414  and  _415
REMARK  168  A    between atoms: _417  and  _419
REMARK  169  A    between atoms: _419  and  _420
REMARK  170  A    between atoms: _419  and  _422
REMARK  171  A    between atoms: _422  and  _423
REMARK  172  A    between atoms: _428  and  _430
REMARK  173  A    between atoms: _430  and  _431
REMARK  174  A    between atoms: _430  and  _433
REMARK  175  A    between atoms: _433  and  _434
REMARK  176  A    between atoms: _437  and  _439
REMARK  177  A    between atoms: _439  and  _440
REMARK  178  A    between atoms: _439  and  _442
REMARK  179  A    between atoms: _442  and  _443
REMARK  180  A    between atoms: _449  and  _451
REMARK  181  A    between atoms: _451  and  _452
REMARK  182  A    between atoms: _451  and  _454
REMARK  183  A    between atoms: _454  and  _455
REMARK  184  A    between atoms: _460  and  _461
REMARK  185  A    between atoms: _463  and  _465
REMARK  186  A    between atoms: _465  and  _466
REMARK  187  A    between atoms: _465  and  _468
REMARK  188  A    between atoms: _471  and  _473
REMARK  189  A    between atoms: _473  and  _474
REMARK  190  A    between atoms: _473  and  _476
REMARK  191  A    between atoms: _479  and  _481
REMARK  192  A    between atoms: _481  and  _482
REMARK  193  A    between atoms: _481  and  _484
REMARK  194  A    between atoms: _484  and  _485
REMARK  195  A    between atoms: _487  and  _489
REMARK  196  A    between atoms: _489  and  _490
REMARK  197  A    between atoms: _489  and  _492
REMARK  198  A    between atoms: _492  and  _493
REMARK  199  A    between atoms: _493  and  _494
REMARK  200  A    between atoms: _494  and  _495
REMARK  201  A    between atoms: _504  and  _506
REMARK  202  A    between atoms: _506  and  _507
REMARK  203  A    between atoms: _506  and  _509
REMARK  204  A    between atoms: _509  and  _510
REMARK  205  A    between atoms: _510  and  _511
REMARK  206  A    between atoms: _513  and  _515
REMARK  207  A    between atoms: _515  and  _516
REMARK  208  A    between atoms: _515  and  _518
REMARK  209  A    between atoms: _518  and  _519
REMARK  210  A    between atoms: _522  and  _524
REMARK  211  A    between atoms: _524  and  _525
REMARK  212  A    between atoms: _524  and  _527
REMARK  213  A    between atoms: _527  and  _528
REMARK  214  A    between atoms: _531  and  _533
REMARK  215  A    between atoms: _533  and  _534
REMARK  216  A    between atoms: _533  and  _536
REMARK  217  A    between atoms: _536  and  _537
REMARK  218  A    between atoms: _537  and  _538
REMARK  219  A    between atoms: _538  and  _539
REMARK  220  A    between atoms: _548  and  _550
REMARK  221  A    between atoms: _550  and  _551
REMARK  222  A    between atoms: _550  and  _553
REMARK  223  A    between atoms: _553  and  _554
REMARK  224  A    between atoms: _557  and  _559
REMARK  225  A    between atoms: _559  and  _560
REMARK  226  A    between atoms: _559  and  _562
REMARK  227  A    between atoms: _562  and  _563
REMARK  228  A    between atoms: _569  and  _571
REMARK  229  A    between atoms: _571  and  _572
REMARK  230  A    between atoms: _571  and  _574
REMARK  231  A    between atoms: _574  and  _575
REMARK  232  A    between atoms: _578  and  _580
REMARK  233  A    between atoms: _580  and  _581
REMARK  234  A    between atoms: _584  and  _586
REMARK  235  A    between atoms: _586  and  _587
REMARK  236  A    between atoms: _586  and  _589
REMARK  237  A    between atoms: _589  and  _590
REMARK  238  A    between atoms: _590  and  _591
REMARK  239  A    between atoms: _593  and  _595
REMARK  240  A    between atoms: _595  and  _596
REMARK  241  A    between atoms: _595  and  _598
REMARK  242  A    between atoms: _598  and  _599
REMARK  243  A    between atoms: _599  and  _600
REMARK  244  A    between atoms: _603  and  _605
REMARK  245  A    between atoms: _605  and  _606
REMARK  246  A    between atoms: _605  and  _608
REMARK  247  A    between atoms: _608  and  _609
REMARK  248  A    between atoms: _609  and  _610
REMARK  249  A    between atoms: _610  and  _611
REMARK  250  A    between atoms: _620  and  _622
REMARK  251  A    between atoms: _622  and  _623
REMARK  252  A    between atoms: _622  and  _625
REMARK  253  A    between atoms: _625  and  _626
REMARK  254  A    between atoms: _631  and  _633
REMARK  255  A    between atoms: _633  and  _634
REMARK  256  A    between atoms: _633  and  _636
REMARK  257  A    between atoms: _636  and  _637
REMARK  258  A    between atoms: _637  and  _638
REMARK  259  A    between atoms: _640  and  _642
REMARK  260  A    between atoms: _642  and  _643
REMARK  261  A    between atoms: _642  and  _645
REMARK  262  A    between atoms: _645  and  _646
REMARK  263  A    between atoms: _651  and  _652
REMARK  264  A    between atoms: _654  and  _656
REMARK  265  A    between atoms: _656  and  _657
REMARK  266  A    between atoms: _656  and  _659
REMARK  267  A    between atoms: _661  and  _663
REMARK  268  A    between atoms: _663  and  _664
REMARK  269  A    between atoms: _663  and  _666
REMARK  270  A    between atoms: _666  and  _667
REMARK  271  A    between atoms: _672  and  _673
REMARK  272  A    between atoms: _675  and  _677
REMARK  273  A    between atoms: _677  and  _678
REMARK  274  A    between atoms: _677  and  _680
REMARK  275  A    between atoms: _680  and  _681
REMARK  276  A    between atoms: _684  and  _686
REMARK  277  A    between atoms: _686  and  _687
REMARK  278  A    between atoms: _686  and  _689
REMARK  279  A    between atoms: _692  and  _694
REMARK  280  A    between atoms: _694  and  _695
REMARK  281  A    between atoms: _694  and  _697
REMARK  282  A    between atoms: _697  and  _698
REMARK  283  A    between atoms: _703  and  _704
REMARK  284  A    between atoms: _706  and  _708
REMARK  285  A    between atoms: _708  and  _709
REMARK  286  A    between atoms: _708  and  _711
REMARK  287  A    between atoms: _711  and  _712
REMARK  288  A    between atoms: _718  and  _720
REMARK  289  A    between atoms: _720  and  _721
REMARK  290  A    between atoms: _724  and  _726
REMARK  291  A    between atoms: _726  and  _727
REMARK  292  A    between atoms: _726  and  _729
REMARK  293  A    between atoms: _732  and  _734
REMARK  294  A    between atoms: _734  and  _735
REMARK  295  A    between atoms: _734  and  _737
REMARK  296  A    between atoms: _737  and  _738
REMARK  297  A    between atoms: _741  and  _743
REMARK  298  A    between atoms: _743  and  _744
REMARK  299  A    between atoms: _746  and  _748
REMARK  300  A    between atoms: _748  and  _749
REMARK  301  A    between atoms: _748  and  _751
REMARK  302  A    between atoms: _751  and  _752
REMARK  303  A    between atoms: _752  and  _753
REMARK  304  A    between atoms: _756  and  _758
REMARK  305  A    between atoms: _758  and  _759
REMARK  306  A    between atoms: _758  and  _761
REMARK  307  A    between atoms: _761  and  _762
REMARK                            x       y       z     vdW  Elec       q    Type
REMARK                         _______ _______ _______ _____ _____    ______ ____
ROOT
ATOM      1  O   HOH     1     -17.243  10.324 -10.192  0.00  0.00    +0.000 OA
ENDROOT
TORSDOF 0
REMARK  Name = ../refined-set-2016/4v24/4v24_pocket.pdb
REMARK  307 active torsions:
REMARK  status: ('A' for Active; 'I' for Inactive)
REMARK    1  A    between atoms: _1  and  _3
REMARK    2  A    between atoms: _3  and  _4
REMARK    3  A    between atoms: _6  and  _8
REMARK    4  A    between atoms: _8  and  _9
REMARK    5  A    between atoms: _8  and  _11
REMARK    6  A    between atoms: _11  and  _12
REMARK    7  A    between atoms: _15  and  _17
REMARK    8  A    between atoms: _17  and  _18
REMARK    9  A    between atoms: _20  and  _22
REMARK   10  A    between atoms: _22  and  _23
REMARK   11  A    between atoms: _25  and  _27
REMARK   12  A    between atoms: _27  and  _28
REMARK   13  A    between atoms: _27  and  _30
REMARK   14  A    between atoms: _30  and  _31
REMARK   15  A    between atoms: _36  and  _38
REMARK   16  A    between atoms: _38  and  _39
REMARK   17  A    between atoms: _42  and  _44
REMARK   18  A    between atoms: _44  and  _45
REMARK   19  A    between atoms: _44  and  _47
REMARK   20  A    between atoms: _47  and  _48
REMARK   21  A    between atoms: _51  and  _53
REMARK   22  A    between atoms: _53  and  _54
REMARK   23  A    between atoms: _53  and  _56
REMARK   24  A    between atoms: _56  and  _57
REMARK   25  A    between atoms: _60  and  _62
REMARK   26  A    between atoms: _62  and  _63
REMARK   27  A    between atoms: _62  and  _65
REMARK   28  A    between atoms: _65  and  _66
REMARK   29  A    between atoms: _68  and  _70
REMARK   30  A    between atoms: _70  and  _71
REMARK   31  A    between atoms: _70  and  _73
REMARK   32  A    between atoms: _73  and  _74
REMARK   33  A    between atoms: _77  and  _79
REMARK   34  A    between atoms: _79  and  _80
REMARK   35  A    between atoms: _83  and  _85
REMARK   36  A    between atoms: _85  and  _86
REMARK   37  A    between atoms: _85  and  _88
REMARK   38  A    between atoms: _88  and  _89
REMARK   39  A    between atoms: _99  and  _101
REMARK   40  A    between atoms: _101  and  _102
REMARK   41  A    between atoms: _101  and  _104
REMARK   42  A    between atoms: _104  and  _105
REMARK   43  A    between atoms: _111  and  _113
REMARK   44  A    between atoms: _113  and  _114
REMARK   45  A    between atoms: _113  and  _116
REMARK   46  A    between atoms: _116  and  _117
REMARK   47  A    between atoms: _120  and  _122
REMARK   48  A    between atoms: _122  and  _123
REMARK   49  A    between atoms: _126  and  _128
REMARK   50  A    between atoms: _128  and  _129
REMARK   51  A    between atoms: _128  and  _131
REMARK   52  A    between atoms: _131  and  _132
REMARK   53  A    between atoms: _135  and  _137
REMARK   54  A    between atoms: _137  and  _138
REMARK   55  A    between atoms: _137  and  _140
REMARK   56  A    between atoms: _143  and  _145
REMARK   57  A    between atoms: _145  and  _146
REMARK   58  A    between atoms: _145  and  _148
REMARK   59  A    between atoms: _148  and  _149
REMARK   60  A    between atoms: _152  and  _154
REMARK   61  A    between atoms: _154  and  _155
REMARK   62  A    between atoms: _154  and  _157
REMARK   63  A    between atoms: _157  and  _158
REMARK   64  A    between atoms: _161  and  _163
REMARK   65  A    between atoms: _163  and  _164
REMARK   66  A    between atoms: _163  and  _166
REMARK   67  A    between atoms: _166  and  _167
REMARK   68  A    between atoms: _169  and  _171
REMARK   69  A    between atoms: _171  and  _172
REMARK   70  A    between atoms: _171  and  _174
REMARK   71  A    between atoms: _174  and  _175
REMARK   72  A    between atoms: _175  and  _176
REMARK   73  A    between atoms: _179  and  _181
REMARK   74  A    between atoms: _181  and  _182
REMARK   75  A    between atoms: _181  and  _184
REMARK   76  A    between atoms: _184  and  _185
REMARK   77  A    between atoms: _185  and  _186
REMARK   78  A    between atoms: _186  and  _187
REMARK   79  A    between atoms: _196  and  _198
REMARK   80  A    between atoms: _198  and  _199
REMARK   81  A    between atoms: _198  and  _201
REMARK   82  A    between atoms: _201  and  _202
REMARK   83  A    between atoms: _208  and  _210
REMARK   84  A    between atoms: _210  and  _211
REMARK   85  A    between atoms: _210  and  _213
REMARK   86  A    between atoms: _213  and  _214
REMARK   87  A    between atoms: _217  and  _219
REMARK   88  A    between atoms: _219  and  _220
REMARK   89  A    between atoms: _222  and  _224
REMARK   90  A    between atoms: _224  and  _225
REMARK   91  A    between atoms: _224  and  _227
REMARK   92  A    between atoms: _227  and  _228
REMARK   93  A    between atoms: _231  and  _233
REMARK   94  A    between atoms: _233  and  _234
REMARK   95  A    between atoms: _233  and  _236
REMARK   96  A    between atoms: _236  and  _237
REMARK   97  A    between atoms: _243  and  _245
REMARK   98  A    between atoms: _245  and  _246
REMARK   99  A    between atoms: _245  and  _248
REMARK  100  A    between atoms: _248  and  _249
REMARK  101  A    between atoms: _249  and  _250
REMARK  102  A    between atoms: _250  and  _251
REMARK  103  A    between atoms: _260  and  _262
REMARK  104  A    between atoms: _262  and  _263
REMARK  105  A    between atoms: _262  and  _265
REMARK  106  A    between atoms: _265  and  _266
REMARK  107  A    between atoms: _269  and  _271
REMARK  108  A    between atoms: _271  and  _272
REMARK  109  A    between atoms: _271  and  _274
REMARK  110  A    between atoms: _274  and  _275
REMARK  111  A    between atoms: _278  and  _280
REMARK  112  A    between atoms: _280  and  _281
REMARK  113  A    between atoms: _280  and  _283
REMARK  114  A    between atoms: _286  and  _288
REMARK  115  A    between atoms: _288  and  _289
REMARK  116  A    between atoms: _288  and  _291
REMARK  117  A    between atoms: _291  and  _292
REMARK  118  A    between atoms: _295  and  _297
REMARK  119  A    between atoms: _297  and  _298
REMARK  120  A    between atoms: _297  and  _300
REMARK  121  A    between atoms: _303  and  _305
REMARK  122  A    between atoms: _305  and  _306
REMARK  123  A    between atoms: _305  and  _308
REMARK  124  A    between atoms: _308  and  _309
REMARK  125  A    between atoms: _312  and  _314
REMARK  126  A    between atoms: _314  and  _315
REMARK  127  A    between atoms: _318  and  _320
REMARK  128  A    between atoms: _320  and  _321
REMARK  129  A    between atoms: _320  and  _323
REMARK  130  A    between atoms: _323  and  _324
REMARK  131  A    between atoms: _327  and  _329
REMARK  132  A    between atoms: _329  and  _330
REMARK  133  A    between atoms: _329  and  _332
REMARK  134  A    between atoms: _332  and  _333
REMARK  135  A    between atoms: _335  and  _337
REMARK  136  A    between atoms: _337  and  _338
REMARK  137  A    between atoms: _337  and  _340
REMARK  138  A    between atoms: _340  and  _341
REMARK  139  A    between atoms: _346  and  _348
REMARK  140  A    between atoms: _348  and  _349
REMARK  141  A    between atoms: _348  and  _351
REMARK  142  A    between atoms: _351  and  _352
REMARK  143  A    between atoms: _355  and  _357
REMARK  144  A    between atoms: _357  and  _358
REMARK  145  A    between atoms: _360  and  _362
REMARK  146  A    between atoms: _362  and  _363
REMARK  147  A    between atoms: _362  and  _365
REMARK  148  A    between atoms: _365  and  _366
REMARK  149  A    between atoms: _368  and  _370
REMARK  150  A    between atoms: _370  and  _371
REMARK  151  A    between atoms: _370  and  _373
REMARK  152  A    between atoms: _373  and  _374
REMARK  153  A    between atoms: _374  and  _375
REMARK  154  A    between atoms: _377  and  _379
REMARK  155  A    between atoms: _379  and  _380
REMARK  156  A    between atoms: _379  and  _382
REMARK  157  A    between atoms: _382  and  _383
REMARK  158  A    between atoms: _389  and  _391
REMARK  159  A    between atoms: _391  and  _392
REMARK  160  A    between atoms: _395  and  _397
REMARK  161  A    between atoms: _397  and  _398
REMARK  162  A    between atoms: _402  and  _403
REMARK  163  A    between atoms: _408  and  _410
REMARK  164  A    between atoms: _410  and  _411
REMARK  165  A    between atoms: _410  and  _413
REMARK  166  A    between atoms: _413  and  _414
REMARK  167  A    between atoms: _414  and  _415
REMARK  168  A    between atoms: _417  and  _419
REMARK  169  A    between atoms: _419  and  _420
REMARK  170  A    between atoms: _419  and  _422
REMARK  171  A    between atoms: _422  and  _423
REMARK  172  A    between atoms: _428  and  _430
REMARK  173  A    between atoms: _430  and  _431
REMARK  174  A    between atoms: _430  and  _433
REMARK  175  A    between atoms: _433  and  _434
REMARK  176  A    between atoms: _437  and  _439
REMARK  177  A    between atoms: _439  and  _440
REMARK  178  A    between atoms: _439  and  _442
REMARK  179  A    between atoms: _442  and  _443
REMARK  180  A    between atoms: _449  and  _451
REMARK  181  A    between atoms: _451  and  _452
REMARK  182  A    between atoms: _451  and  _454
REMARK  183  A    between atoms: _454  and  _455
REMARK  184  A    between atoms: _460  and  _461
REMARK  185  A    between atoms: _463  and  _465
REMARK  186  A    between atoms: _465  and  _466
REMARK  187  A    between atoms: _465  and  _468
REMARK  188  A    between atoms: _471  and  _473
REMARK  189  A    between atoms: _473  and  _474
REMARK  190  A    between atoms: _473  and  _476
REMARK  191  A    between atoms: _479  and  _481
REMARK  192  A    between atoms: _481  and  _482
REMARK  193  A    between atoms: _481  and  _484
REMARK  194  A    between atoms: _484  and  _485
REMARK  195  A    between atoms: _487  and  _489
REMARK  196  A    between atoms: _489  and  _490
REMARK  197  A    between atoms: _489  and  _492
REMARK  198  A    between atoms: _492  and  _493
REMARK  199  A    between atoms: _493  and  _494
REMARK  200  A    between atoms: _494  and  _495
REMARK  201  A    between atoms: _504  and  _506
REMARK  202  A    between atoms: _506  and  _507
REMARK  203  A    between atoms: _506  and  _509
REMARK  204  A    between atoms: _509  and  _510
REMARK  205  A    between atoms: _510  and  _511
REMARK  206  A    between atoms: _513  and  _515
REMARK  207  A    between atoms: _515  and  _516
REMARK  208  A    between atoms: _515  and  _518
REMARK  209  A    between atoms: _518  and  _519
REMARK  210  A    between atoms: _522  and  _524
REMARK  211  A    between atoms: _524  and  _525
REMARK  212  A    between atoms: _524  and  _527
REMARK  213  A    between atoms: _527  and  _528
REMARK  214  A    between atoms: _531  and  _533
REMARK  215  A    between atoms: _533  and  _534
REMARK  216  A    between atoms: _533  and  _536
REMARK  217  A    between atoms: _536  and  _537
REMARK  218  A    between atoms: _537  and  _538
REMARK  219  A    between atoms: _538  and  _539
REMARK  220  A    between atoms: _548  and  _550
REMARK  221  A    between atoms: _550  and  _551
REMARK  222  A    between atoms: _550  and  _553
REMARK  223  A    between atoms: _553  and  _554
REMARK  224  A    between atoms: _557  and  _559
REMARK  225  A    between atoms: _559  and  _560
REMARK  226  A    between atoms: _559  and  _562
REMARK  227  A    between atoms: _562  and  _563
REMARK  228  A    between atoms: _569  and  _571
REMARK  229  A    between atoms: _571  and  _572
REMARK  230  A    between atoms: _571  and  _574
REMARK  231  A    between atoms: _574  and  _575
REMARK  232  A    between atoms: _578  and  _580
REMARK  233  A    between atoms: _580  and  _581
REMARK  234  A    between atoms: _584  and  _586
REMARK  235  A    between atoms: _586  and  _587
REMARK  236  A    between atoms: _586  and  _589
REMARK  237  A    between atoms: _589  and  _590
REMARK  238  A    between atoms: _590  and  _591
REMARK  239  A    between atoms: _593  and  _595
REMARK  240  A    between atoms: _595  and  _596
REMARK  241  A    between atoms: _595  and  _598
REMARK  242  A    between atoms: _598  and  _599
REMARK  243  A    between atoms: _599  and  _600
REMARK  244  A    between atoms: _603  and  _605
REMARK  245  A    between atoms: _605  and  _606
REMARK  246  A    between atoms: _605  and  _608
REMARK  247  A    between atoms: _608  and  _609
REMARK  248  A    between atoms: _609  and  _610
REMARK  249  A    between atoms: _610  and  _611
REMARK  250  A    between atoms: _620  and  _622
REMARK  251  A    between atoms: _622  and  _623
REMARK  252  A    between atoms: _622  and  _625
REMARK  253  A    between atoms: _625  and  _626
REMARK  254  A    between atoms: _631  and  _633
REMARK  255  A    between atoms: _633  and  _634
REMARK  256  A    between atoms: _633  and  _636
REMARK  257  A    between atoms: _636  and  _637
REMARK  258  A    between atoms: _637  and  _638
REMARK  259  A    between atoms: _640  and  _642
REMARK  260  A    between atoms: _642  and  _643
REMARK  261  A    between atoms: _642  and  _645
REMARK  262  A    between atoms: _645  and  _646
REMARK  263  A    between atoms: _651  and  _652
REMARK  264  A    between atoms: _654  and  _656
REMARK  265  A    between atoms: _656  and  _657
REMARK  266  A    between atoms: _656  and  _659
REMARK  267  A    between atoms: _661  and  _663
REMARK  268  A    between atoms: _663  and  _664
REMARK  269  A    between atoms: _663  and  _666
REMARK  270  A    between atoms: _666  and  _667
REMARK  271  A    between atoms: _672  and  _673
REMARK  272  A    between atoms: _675  and  _677
REMARK  273  A    between atoms: _677  and  _678
REMARK  274  A    between atoms: _677  and  _680
REMARK  275  A    between atoms: _680  and  _681
REMARK  276  A    between atoms: _684  and  _686
REMARK  277  A    between atoms: _686  and  _687
REMARK  278  A    between atoms: _686  and  _689
REMARK  279  A    between atoms: _692  and  _694
REMARK  280  A    between atoms: _694  and  _695
REMARK  281  A    between atoms: _694  and  _697
REMARK  282  A    between atoms: _697  and  _698
REMARK  283  A    between atoms: _703  and  _704
REMARK  284  A    between atoms: _706  and  _708
REMARK  285  A    between atoms: _708  and  _709
REMARK  286  A    between atoms: _708  and  _711
REMARK  287  A    between atoms: _711  and  _712
REMARK  288  A    between atoms: _718  and  _720
REMARK  289  A    between atoms: _720  and  _721
REMARK  290  A    between atoms: _724  and  _726
REMARK  291  A    between atoms: _726  and  _727
REMARK  292  A    between atoms: _726  and  _729
REMARK  293  A    between atoms: _732  and  _734
REMARK  294  A    between atoms: _734  and  _735
REMARK  295  A    between atoms: _734  and  _737
REMARK  296  A    between atoms: _737  and  _738
REMARK  297  A    between atoms: _741  and  _743
REMARK  298  A    between atoms: _743  and  _744
REMARK  299  A    between atoms: _746  and  _748
REMARK  300  A    between atoms: _748  and  _749
REMARK  301  A    between atoms: _748  and  _751
REMARK  302  A    between atoms: _751  and  _752
REMARK  303  A    between atoms: _752  and  _753
REMARK  304  A    between atoms: _756  and  _758
REMARK  305  A    between atoms: _758  and  _759
REMARK  306  A    between atoms: _758  and  _761
REMARK  307  A    between atoms: _761  and  _762
REMARK                            x       y       z     vdW  Elec       q    Type
REMARK                         _______ _______ _______ _____ _____    ______ ____
ROOT
ATOM      1  O   HOH     1     -20.881   6.571  -8.068  0.00  0.00    +0.000 OA
ENDROOT
TORSDOF 0
REMARK  Name = ../refined-set-2016/4v24/4v24_pocket.pdb
REMARK  307 active torsions:
REMARK  status: ('A' for Active; 'I' for Inactive)
REMARK    1  A    between atoms: _1  and  _3
REMARK    2  A    between atoms: _3  and  _4
REMARK    3  A    between atoms: _6  and  _8
REMARK    4  A    between atoms: _8  and  _9
REMARK    5  A    between atoms: _8  and  _11
REMARK    6  A    between atoms: _11  and  _12
REMARK    7  A    between atoms: _15  and  _17
REMARK    8  A    between atoms: _17  and  _18
REMARK    9  A    between atoms: _20  and  _22
REMARK   10  A    between atoms: _22  and  _23
REMARK   11  A    between atoms: _25  and  _27
REMARK   12  A    between atoms: _27  and  _28
REMARK   13  A    between atoms: _27  and  _30
REMARK   14  A    between atoms: _30  and  _31
REMARK   15  A    between atoms: _36  and  _38
REMARK   16  A    between atoms: _38  and  _39
REMARK   17  A    between atoms: _42  and  _44
REMARK   18  A    between atoms: _44  and  _45
REMARK   19  A    between atoms: _44  and  _47
REMARK   20  A    between atoms: _47  and  _48
REMARK   21  A    between atoms: _51  and  _53
REMARK   22  A    between atoms: _53  and  _54
REMARK   23  A    between atoms: _53  and  _56
REMARK   24  A    between atoms: _56  and  _57
REMARK   25  A    between atoms: _60  and  _62
REMARK   26  A    between atoms: _62  and  _63
REMARK   27  A    between atoms: _62  and  _65
REMARK   28  A    between atoms: _65  and  _66
REMARK   29  A    between atoms: _68  and  _70
REMARK   30  A    between atoms: _70  and  _71
REMARK   31  A    between atoms: _70  and  _73
REMARK   32  A    between atoms: _73  and  _74
REMARK   33  A    between atoms: _77  and  _79
REMARK   34  A    between atoms: _79  and  _80
REMARK   35  A    between atoms: _83  and  _85
REMARK   36  A    between atoms: _85  and  _86
REMARK   37  A    between atoms: _85  and  _88
REMARK   38  A    between atoms: _88  and  _89
REMARK   39  A    between atoms: _99  and  _101
REMARK   40  A    between atoms: _101  and  _102
REMARK   41  A    between atoms: _101  and  _104
REMARK   42  A    between atoms: _104  and  _105
REMARK   43  A    between atoms: _111  and  _113
REMARK   44  A    between atoms: _113  and  _114
REMARK   45  A    between atoms: _113  and  _116
REMARK   46  A    between atoms: _116  and  _117
REMARK   47  A    between atoms: _120  and  _122
REMARK   48  A    between atoms: _122  and  _123
REMARK   49  A    between atoms: _126  and  _128
REMARK   50  A    between atoms: _128  and  _129
REMARK   51  A    between atoms: _128  and  _131
REMARK   52  A    between atoms: _131  and  _132
REMARK   53  A    between atoms: _135  and  _137
REMARK   54  A    between atoms: _137  and  _138
REMARK   55  A    between atoms: _137  and  _140
REMARK   56  A    between atoms: _143  and  _145
REMARK   57  A    between atoms: _145  and  _146
REMARK   58  A    between atoms: _145  and  _148
REMARK   59  A    between atoms: _148  and  _149
REMARK   60  A    between atoms: _152  and  _154
REMARK   61  A    between atoms: _154  and  _155
REMARK   62  A    between atoms: _154  and  _157
REMARK   63  A    between atoms: _157  and  _158
REMARK   64  A    between atoms: _161  and  _163
REMARK   65  A    between atoms: _163  and  _164
REMARK   66  A    between atoms: _163  and  _166
REMARK   67  A    between atoms: _166  and  _167
REMARK   68  A    between atoms: _169  and  _171
REMARK   69  A    between atoms: _171  and  _172
REMARK   70  A    between atoms: _171  and  _174
REMARK   71  A    between atoms: _174  and  _175
REMARK   72  A    between atoms: _175  and  _176
REMARK   73  A    between atoms: _179  and  _181
REMARK   74  A    between atoms: _181  and  _182
REMARK   75  A    between atoms: _181  and  _184
REMARK   76  A    between atoms: _184  and  _185
REMARK   77  A    between atoms: _185  and  _186
REMARK   78  A    between atoms: _186  and  _187
REMARK   79  A    between atoms: _196  and  _198
REMARK   80  A    between atoms: _198  and  _199
REMARK   81  A    between atoms: _198  and  _201
REMARK   82  A    between atoms: _201  and  _202
REMARK   83  A    between atoms: _208  and  _210
REMARK   84  A    between atoms: _210  and  _211
REMARK   85  A    between atoms: _210  and  _213
REMARK   86  A    between atoms: _213  and  _214
REMARK   87  A    between atoms: _217  and  _219
REMARK   88  A    between atoms: _219  and  _220
REMARK   89  A    between atoms: _222  and  _224
REMARK   90  A    between atoms: _224  and  _225
REMARK   91  A    between atoms: _224  and  _227
REMARK   92  A    between atoms: _227  and  _228
REMARK   93  A    between atoms: _231  and  _233
REMARK   94  A    between atoms: _233  and  _234
REMARK   95  A    between atoms: _233  and  _236
REMARK   96  A    between atoms: _236  and  _237
REMARK   97  A    between atoms: _243  and  _245
REMARK   98  A    between atoms: _245  and  _246
REMARK   99  A    between atoms: _245  and  _248
REMARK  100  A    between atoms: _248  and  _249
REMARK  101  A    between atoms: _249  and  _250
REMARK  102  A    between atoms: _250  and  _251
REMARK  103  A    between atoms: _260  and  _262
REMARK  104  A    between atoms: _262  and  _263
REMARK  105  A    between atoms: _262  and  _265
REMARK  106  A    between atoms: _265  and  _266
REMARK  107  A    between atoms: _269  and  _271
REMARK  108  A    between atoms: _271  and  _272
REMARK  109  A    between atoms: _271  and  _274
REMARK  110  A    between atoms: _274  and  _275
REMARK  111  A    between atoms: _278  and  _280
REMARK  112  A    between atoms: _280  and  _281
REMARK  113  A    between atoms: _280  and  _283
REMARK  114  A    between atoms: _286  and  _288
REMARK  115  A    between atoms: _288  and  _289
REMARK  116  A    between atoms: _288  and  _291
REMARK  117  A    between atoms: _291  and  _292
REMARK  118  A    between atoms: _295  and  _297
REMARK  119  A    between atoms: _297  and  _298
REMARK  120  A    between atoms: _297  and  _300
REMARK  121  A    between atoms: _303  and  _305
REMARK  122  A    between atoms: _305  and  _306
REMARK  123  A    between atoms: _305  and  _308
REMARK  124  A    between atoms: _308  and  _309
REMARK  125  A    between atoms: _312  and  _314
REMARK  126  A    between atoms: _314  and  _315
REMARK  127  A    between atoms: _318  and  _320
REMARK  128  A    between atoms: _320  and  _321
REMARK  129  A    between atoms: _320  and  _323
REMARK  130  A    between atoms: _323  and  _324
REMARK  131  A    between atoms: _327  and  _329
REMARK  132  A    between atoms: _329  and  _330
REMARK  133  A    between atoms: _329  and  _332
REMARK  134  A    between atoms: _332  and  _333
REMARK  135  A    between atoms: _335  and  _337
REMARK  136  A    between atoms: _337  and  _338
REMARK  137  A    between atoms: _337  and  _340
REMARK  138  A    between atoms: _340  and  _341
REMARK  139  A    between atoms: _346  and  _348
REMARK  140  A    between atoms: _348  and  _349
REMARK  141  A    between atoms: _348  and  _351
REMARK  142  A    between atoms: _351  and  _352
REMARK  143  A    between atoms: _355  and  _357
REMARK  144  A    between atoms: _357  and  _358
REMARK  145  A    between atoms: _360  and  _362
REMARK  146  A    between atoms: _362  and  _363
REMARK  147  A    between atoms: _362  and  _365
REMARK  148  A    between atoms: _365  and  _366
REMARK  149  A    between atoms: _368  and  _370
REMARK  150  A    between atoms: _370  and  _371
REMARK  151  A    between atoms: _370  and  _373
REMARK  152  A    between atoms: _373  and  _374
REMARK  153  A    between atoms: _374  and  _375
REMARK  154  A    between atoms: _377  and  _379
REMARK  155  A    between atoms: _379  and  _380
REMARK  156  A    between atoms: _379  and  _382
REMARK  157  A    between atoms: _382  and  _383
REMARK  158  A    between atoms: _389  and  _391
REMARK  159  A    between atoms: _391  and  _392
REMARK  160  A    between atoms: _395  and  _397
REMARK  161  A    between atoms: _397  and  _398
REMARK  162  A    between atoms: _402  and  _403
REMARK  163  A    between atoms: _408  and  _410
REMARK  164  A    between atoms: _410  and  _411
REMARK  165  A    between atoms: _410  and  _413
REMARK  166  A    between atoms: _413  and  _414
REMARK  167  A    between atoms: _414  and  _415
REMARK  168  A    between atoms: _417  and  _419
REMARK  169  A    between atoms: _419  and  _420
REMARK  170  A    between atoms: _419  and  _422
REMARK  171  A    between atoms: _422  and  _423
REMARK  172  A    between atoms: _428  and  _430
REMARK  173  A    between atoms: _430  and  _431
REMARK  174  A    between atoms: _430  and  _433
REMARK  175  A    between atoms: _433  and  _434
REMARK  176  A    between atoms: _437  and  _439
REMARK  177  A    between atoms: _439  and  _440
REMARK  178  A    between atoms: _439  and  _442
REMARK  179  A    between atoms: _442  and  _443
REMARK  180  A    between atoms: _449  and  _451
REMARK  181  A    between atoms: _451  and  _452
REMARK  182  A    between atoms: _451  and  _454
REMARK  183  A    between atoms: _454  and  _455
REMARK  184  A    between atoms: _460  and  _461
REMARK  185  A    between atoms: _463  and  _465
REMARK  186  A    between atoms: _465  and  _466
REMARK  187  A    between atoms: _465  and  _468
REMARK  188  A    between atoms: _471  and  _473
REMARK  189  A    between atoms: _473  and  _474
REMARK  190  A    between atoms: _473  and  _476
REMARK  191  A    between atoms: _479  and  _481
REMARK  192  A    between atoms: _481  and  _482
REMARK  193  A    between atoms: _481  and  _484
REMARK  194  A    between atoms: _484  and  _485
REMARK  195  A    between atoms: _487  and  _489
REMARK  196  A    between atoms: _489  and  _490
REMARK  197  A    between atoms: _489  and  _492
REMARK  198  A    between atoms: _492  and  _493
REMARK  199  A    between atoms: _493  and  _494
REMARK  200  A    between atoms: _494  and  _495
REMARK  201  A    between atoms: _504  and  _506
REMARK  202  A    between atoms: _506  and  _507
REMARK  203  A    between atoms: _506  and  _509
REMARK  204  A    between atoms: _509  and  _510
REMARK  205  A    between atoms: _510  and  _511
REMARK  206  A    between atoms: _513  and  _515
REMARK  207  A    between atoms: _515  and  _516
REMARK  208  A    between atoms: _515  and  _518
REMARK  209  A    between atoms: _518  and  _519
REMARK  210  A    between atoms: _522  and  _524
REMARK  211  A    between atoms: _524  and  _525
REMARK  212  A    between atoms: _524  and  _527
REMARK  213  A    between atoms: _527  and  _528
REMARK  214  A    between atoms: _531  and  _533
REMARK  215  A    between atoms: _533  and  _534
REMARK  216  A    between atoms: _533  and  _536
REMARK  217  A    between atoms: _536  and  _537
REMARK  218  A    between atoms: _537  and  _538
REMARK  219  A    between atoms: _538  and  _539
REMARK  220  A    between atoms: _548  and  _550
REMARK  221  A    between atoms: _550  and  _551
REMARK  222  A    between atoms: _550  and  _553
REMARK  223  A    between atoms: _553  and  _554
REMARK  224  A    between atoms: _557  and  _559
REMARK  225  A    between atoms: _559  and  _560
REMARK  226  A    between atoms: _559  and  _562
REMARK  227  A    between atoms: _562  and  _563
REMARK  228  A    between atoms: _569  and  _571
REMARK  229  A    between atoms: _571  and  _572
REMARK  230  A    between atoms: _571  and  _574
REMARK  231  A    between atoms: _574  and  _575
REMARK  232  A    between atoms: _578  and  _580
REMARK  233  A    between atoms: _580  and  _581
REMARK  234  A    between atoms: _584  and  _586
REMARK  235  A    between atoms: _586  and  _587
REMARK  236  A    between atoms: _586  and  _589
REMARK  237  A    between atoms: _589  and  _590
REMARK  238  A    between atoms: _590  and  _591
REMARK  239  A    between atoms: _593  and  _595
REMARK  240  A    between atoms: _595  and  _596
REMARK  241  A    between atoms: _595  and  _598
REMARK  242  A    between atoms: _598  and  _599
REMARK  243  A    between atoms: _599  and  _600
REMARK  244  A    between atoms: _603  and  _605
REMARK  245  A    between atoms: _605  and  _606
REMARK  246  A    between atoms: _605  and  _608
REMARK  247  A    between atoms: _608  and  _609
REMARK  248  A    between atoms: _609  and  _610
REMARK  249  A    between atoms: _610  and  _611
REMARK  250  A    between atoms: _620  and  _622
REMARK  251  A    between atoms: _622  and  _623
REMARK  252  A    between atoms: _622  and  _625
REMARK  253  A    between atoms: _625  and  _626
REMARK  254  A    between atoms: _631  and  _633
REMARK  255  A    between atoms: _633  and  _634
REMARK  256  A    between atoms: _633  and  _636
REMARK  257  A    between atoms: _636  and  _637
REMARK  258  A    between atoms: _637  and  _638
REMARK  259  A    between atoms: _640  and  _642
REMARK  260  A    between atoms: _642  and  _643
REMARK  261  A    between atoms: _642  and  _645
REMARK  262  A    between atoms: _645  and  _646
REMARK  263  A    between atoms: _651  and  _652
REMARK  264  A    between atoms: _654  and  _656
REMARK  265  A    between atoms: _656  and  _657
REMARK  266  A    between atoms: _656  and  _659
REMARK  267  A    between atoms: _661  and  _663
REMARK  268  A    between atoms: _663  and  _664
REMARK  269  A    between atoms: _663  and  _666
REMARK  270  A    between atoms: _666  and  _667
REMARK  271  A    between atoms: _672  and  _673
REMARK  272  A    between atoms: _675  and  _677
REMARK  273  A    between atoms: _677  and  _678
REMARK  274  A    between atoms: _677  and  _680
REMARK  275  A    between atoms: _680  and  _681
REMARK  276  A    between atoms: _684  and  _686
REMARK  277  A    between atoms: _686  and  _687
REMARK  278  A    between atoms: _686  and  _689
REMARK  279  A    between atoms: _692  and  _694
REMARK  280  A    between atoms: _694  and  _695
REMARK  281  A    between atoms: _694  and  _697
REMARK  282  A    between atoms: _697  and  _698
REMARK  283  A    between atoms: _703  and  _704
REMARK  284  A    between atoms: _706  and  _708
REMARK  285  A    between atoms: _708  and  _709
REMARK  286  A    between atoms: _708  and  _711
REMARK  287  A    between atoms: _711  and  _712
REMARK  288  A    between atoms: _718  and  _720
REMARK  289  A    between atoms: _720  and  _721
REMARK  290  A    between atoms: _724  and  _726
REMARK  291  A    between atoms: _726  and  _727
REMARK  292  A    between atoms: _726  and  _729
REMARK  293  A    between atoms: _732  and  _734
REMARK  294  A    between atoms: _734  and  _735
REMARK  295  A    between atoms: _734  and  _737
REMARK  296  A    between atoms: _737  and  _738
REMARK  297  A    between atoms: _741  and  _743
REMARK  298  A    between atoms: _743  and  _744
REMARK  299  A    between atoms: _746  and  _748
REMARK  300  A    between atoms: _748  and  _749
REMARK  301  A    between atoms: _748  and  _751
REMARK  302  A    between atoms: _751  and  _752
REMARK  303  A    between atoms: _752  and  _753
REMARK  304  A    between atoms: _756  and  _758
REMARK  305  A    between atoms: _758  and  _759
REMARK  306  A    between atoms: _758  and  _761
REMARK  307  A    between atoms: _761  and  _762
REMARK                            x       y       z     vdW  Elec       q    Type
REMARK                         _______ _______ _______ _____ _____    ______ ____
ROOT
ATOM      1  O   HOH     1     -29.776  21.954 -18.654  0.00  0.00    +0.000 OA
ENDROOT
TORSDOF 0
REMARK  Name = ../refined-set-2016/4v24/4v24_pocket.pdb
REMARK  307 active torsions:
REMARK  status: ('A' for Active; 'I' for Inactive)
REMARK    1  A    between atoms: _1  and  _3
REMARK    2  A    between atoms: _3  and  _4
REMARK    3  A    between atoms: _6  and  _8
REMARK    4  A    between atoms: _8  and  _9
REMARK    5  A    between atoms: _8  and  _11
REMARK    6  A    between atoms: _11  and  _12
REMARK    7  A    between atoms: _15  and  _17
REMARK    8  A    between atoms: _17  and  _18
REMARK    9  A    between atoms: _20  and  _22
REMARK   10  A    between atoms: _22  and  _23
REMARK   11  A    between atoms: _25  and  _27
REMARK   12  A    between atoms: _27  and  _28
REMARK   13  A    between atoms: _27  and  _30
REMARK   14  A    between atoms: _30  and  _31
REMARK   15  A    between atoms: _36  and  _38
REMARK   16  A    between atoms: _38  and  _39
REMARK   17  A    between atoms: _42  and  _44
REMARK   18  A    between atoms: _44  and  _45
REMARK   19  A    between atoms: _44  and  _47
REMARK   20  A    between atoms: _47  and  _48
REMARK   21  A    between atoms: _51  and  _53
REMARK   22  A    between atoms: _53  and  _54
REMARK   23  A    between atoms: _53  and  _56
REMARK   24  A    between atoms: _56  and  _57
REMARK   25  A    between atoms: _60  and  _62
REMARK   26  A    between atoms: _62  and  _63
REMARK   27  A    between atoms: _62  and  _65
REMARK   28  A    between atoms: _65  and  _66
REMARK   29  A    between atoms: _68  and  _70
REMARK   30  A    between atoms: _70  and  _71
REMARK   31  A    between atoms: _70  and  _73
REMARK   32  A    between atoms: _73  and  _74
REMARK   33  A    between atoms: _77  and  _79
REMARK   34  A    between atoms: _79  and  _80
REMARK   35  A    between atoms: _83  and  _85
REMARK   36  A    between atoms: _85  and  _86
REMARK   37  A    between atoms: _85  and  _88
REMARK   38  A    between atoms: _88  and  _89
REMARK   39  A    between atoms: _99  and  _101
REMARK   40  A    between atoms: _101  and  _102
REMARK   41  A    between atoms: _101  and  _104
REMARK   42  A    between atoms: _104  and  _105
REMARK   43  A    between atoms: _111  and  _113
REMARK   44  A    between atoms: _113  and  _114
REMARK   45  A    between atoms: _113  and  _116
REMARK   46  A    between atoms: _116  and  _117
REMARK   47  A    between atoms: _120  and  _122
REMARK   48  A    between atoms: _122  and  _123
REMARK   49  A    between atoms: _126  and  _128
REMARK   50  A    between atoms: _128  and  _129
REMARK   51  A    between atoms: _128  and  _131
REMARK   52  A    between atoms: _131  and  _132
REMARK   53  A    between atoms: _135  and  _137
REMARK   54  A    between atoms: _137  and  _138
REMARK   55  A    between atoms: _137  and  _140
REMARK   56  A    between atoms: _143  and  _145
REMARK   57  A    between atoms: _145  and  _146
REMARK   58  A    between atoms: _145  and  _148
REMARK   59  A    between atoms: _148  and  _149
REMARK   60  A    between atoms: _152  and  _154
REMARK   61  A    between atoms: _154  and  _155
REMARK   62  A    between atoms: _154  and  _157
REMARK   63  A    between atoms: _157  and  _158
REMARK   64  A    between atoms: _161  and  _163
REMARK   65  A    between atoms: _163  and  _164
REMARK   66  A    between atoms: _163  and  _166
REMARK   67  A    between atoms: _166  and  _167
REMARK   68  A    between atoms: _169  and  _171
REMARK   69  A    between atoms: _171  and  _172
REMARK   70  A    between atoms: _171  and  _174
REMARK   71  A    between atoms: _174  and  _175
REMARK   72  A    between atoms: _175  and  _176
REMARK   73  A    between atoms: _179  and  _181
REMARK   74  A    between atoms: _181  and  _182
REMARK   75  A    between atoms: _181  and  _184
REMARK   76  A    between atoms: _184  and  _185
REMARK   77  A    between atoms: _185  and  _186
REMARK   78  A    between atoms: _186  and  _187
REMARK   79  A    between atoms: _196  and  _198
REMARK   80  A    between atoms: _198  and  _199
REMARK   81  A    between atoms: _198  and  _201
REMARK   82  A    between atoms: _201  and  _202
REMARK   83  A    between atoms: _208  and  _210
REMARK   84  A    between atoms: _210  and  _211
REMARK   85  A    between atoms: _210  and  _213
REMARK   86  A    between atoms: _213  and  _214
REMARK   87  A    between atoms: _217  and  _219
REMARK   88  A    between atoms: _219  and  _220
REMARK   89  A    between atoms: _222  and  _224
REMARK   90  A    between atoms: _224  and  _225
REMARK   91  A    between atoms: _224  and  _227
REMARK   92  A    between atoms: _227  and  _228
REMARK   93  A    between atoms: _231  and  _233
REMARK   94  A    between atoms: _233  and  _234
REMARK   95  A    between atoms: _233  and  _236
REMARK   96  A    between atoms: _236  and  _237
REMARK   97  A    between atoms: _243  and  _245
REMARK   98  A    between atoms: _245  and  _246
REMARK   99  A    between atoms: _245  and  _248
REMARK  100  A    between atoms: _248  and  _249
REMARK  101  A    between atoms: _249  and  _250
REMARK  102  A    between atoms: _250  and  _251
REMARK  103  A    between atoms: _260  and  _262
REMARK  104  A    between atoms: _262  and  _263
REMARK  105  A    between atoms: _262  and  _265
REMARK  106  A    between atoms: _265  and  _266
REMARK  107  A    between atoms: _269  and  _271
REMARK  108  A    between atoms: _271  and  _272
REMARK  109  A    between atoms: _271  and  _274
REMARK  110  A    between atoms: _274  and  _275
REMARK  111  A    between atoms: _278  and  _280
REMARK  112  A    between atoms: _280  and  _281
REMARK  113  A    between atoms: _280  and  _283
REMARK  114  A    between atoms: _286  and  _288
REMARK  115  A    between atoms: _288  and  _289
REMARK  116  A    between atoms: _288  and  _291
REMARK  117  A    between atoms: _291  and  _292
REMARK  118  A    between atoms: _295  and  _297
REMARK  119  A    between atoms: _297  and  _298
REMARK  120  A    between atoms: _297  and  _300
REMARK  121  A    between atoms: _303  and  _305
REMARK  122  A    between atoms: _305  and  _306
REMARK  123  A    between atoms: _305  and  _308
REMARK  124  A    between atoms: _308  and  _309
REMARK  125  A    between atoms: _312  and  _314
REMARK  126  A    between atoms: _314  and  _315
REMARK  127  A    between atoms: _318  and  _320
REMARK  128  A    between atoms: _320  and  _321
REMARK  129  A    between atoms: _320  and  _323
REMARK  130  A    between atoms: _323  and  _324
REMARK  131  A    between atoms: _327  and  _329
REMARK  132  A    between atoms: _329  and  _330
REMARK  133  A    between atoms: _329  and  _332
REMARK  134  A    between atoms: _332  and  _333
REMARK  135  A    between atoms: _335  and  _337
REMARK  136  A    between atoms: _337  and  _338
REMARK  137  A    between atoms: _337  and  _340
REMARK  138  A    between atoms: _340  and  _341
REMARK  139  A    between atoms: _346  and  _348
REMARK  140  A    between atoms: _348  and  _349
REMARK  141  A    between atoms: _348  and  _351
REMARK  142  A    between atoms: _351  and  _352
REMARK  143  A    between atoms: _355  and  _357
REMARK  144  A    between atoms: _357  and  _358
REMARK  145  A    between atoms: _360  and  _362
REMARK  146  A    between atoms: _362  and  _363
REMARK  147  A    between atoms: _362  and  _365
REMARK  148  A    between atoms: _365  and  _366
REMARK  149  A    between atoms: _368  and  _370
REMARK  150  A    between atoms: _370  and  _371
REMARK  151  A    between atoms: _370  and  _373
REMARK  152  A    between atoms: _373  and  _374
REMARK  153  A    between atoms: _374  and  _375
REMARK  154  A    between atoms: _377  and  _379
REMARK  155  A    between atoms: _379  and  _380
REMARK  156  A    between atoms: _379  and  _382
REMARK  157  A    between atoms: _382  and  _383
REMARK  158  A    between atoms: _389  and  _391
REMARK  159  A    between atoms: _391  and  _392
REMARK  160  A    between atoms: _395  and  _397
REMARK  161  A    between atoms: _397  and  _398
REMARK  162  A    between atoms: _402  and  _403
REMARK  163  A    between atoms: _408  and  _410
REMARK  164  A    between atoms: _410  and  _411
REMARK  165  A    between atoms: _410  and  _413
REMARK  166  A    between atoms: _413  and  _414
REMARK  167  A    between atoms: _414  and  _415
REMARK  168  A    between atoms: _417  and  _419
REMARK  169  A    between atoms: _419  and  _420
REMARK  170  A    between atoms: _419  and  _422
REMARK  171  A    between atoms: _422  and  _423
REMARK  172  A    between atoms: _428  and  _430
REMARK  173  A    between atoms: _430  and  _431
REMARK  174  A    between atoms: _430  and  _433
REMARK  175  A    between atoms: _433  and  _434
REMARK  176  A    between atoms: _437  and  _439
REMARK  177  A    between atoms: _439  and  _440
REMARK  178  A    between atoms: _439  and  _442
REMARK  179  A    between atoms: _442  and  _443
REMARK  180  A    between atoms: _449  and  _451
REMARK  181  A    between atoms: _451  and  _452
REMARK  182  A    between atoms: _451  and  _454
REMARK  183  A    between atoms: _454  and  _455
REMARK  184  A    between atoms: _460  and  _461
REMARK  185  A    between atoms: _463  and  _465
REMARK  186  A    between atoms: _465  and  _466
REMARK  187  A    between atoms: _465  and  _468
REMARK  188  A    between atoms: _471  and  _473
REMARK  189  A    between atoms: _473  and  _474
REMARK  190  A    between atoms: _473  and  _476
REMARK  191  A    between atoms: _479  and  _481
REMARK  192  A    between atoms: _481  and  _482
REMARK  193  A    between atoms: _481  and  _484
REMARK  194  A    between atoms: _484  and  _485
REMARK  195  A    between atoms: _487  and  _489
REMARK  196  A    between atoms: _489  and  _490
REMARK  197  A    between atoms: _489  and  _492
REMARK  198  A    between atoms: _492  and  _493
REMARK  199  A    between atoms: _493  and  _494
REMARK  200  A    between atoms: _494  and  _495
REMARK  201  A    between atoms: _504  and  _506
REMARK  202  A    between atoms: _506  and  _507
REMARK  203  A    between atoms: _506  and  _509
REMARK  204  A    between atoms: _509  and  _510
REMARK  205  A    between atoms: _510  and  _511
REMARK  206  A    between atoms: _513  and  _515
REMARK  207  A    between atoms: _515  and  _516
REMARK  208  A    between atoms: _515  and  _518
REMARK  209  A    between atoms: _518  and  _519
REMARK  210  A    between atoms: _522  and  _524
REMARK  211  A    between atoms: _524  and  _525
REMARK  212  A    between atoms: _524  and  _527
REMARK  213  A    between atoms: _527  and  _528
REMARK  214  A    between atoms: _531  and  _533
REMARK  215  A    between atoms: _533  and  _534
REMARK  216  A    between atoms: _533  and  _536
REMARK  217  A    between atoms: _536  and  _537
REMARK  218  A    between atoms: _537  and  _538
REMARK  219  A    between atoms: _538  and  _539
REMARK  220  A    between atoms: _548  and  _550
REMARK  221  A    between atoms: _550  and  _551
REMARK  222  A    between atoms: _550  and  _553
REMARK  223  A    between atoms: _553  and  _554
REMARK  224  A    between atoms: _557  and  _559
REMARK  225  A    between atoms: _559  and  _560
REMARK  226  A    between atoms: _559  and  _562
REMARK  227  A    between atoms: _562  and  _563
REMARK  228  A    between atoms: _569  and  _571
REMARK  229  A    between atoms: _571  and  _572
REMARK  230  A    between atoms: _571  and  _574
REMARK  231  A    between atoms: _574  and  _575
REMARK  232  A    between atoms: _578  and  _580
REMARK  233  A    between atoms: _580  and  _581
REMARK  234  A    between atoms: _584  and  _586
REMARK  235  A    between atoms: _586  and  _587
REMARK  236  A    between atoms: _586  and  _589
REMARK  237  A    between atoms: _589  and  _590
REMARK  238  A    between atoms: _590  and  _591
REMARK  239  A    between atoms: _593  and  _595
REMARK  240  A    between atoms: _595  and  _596
REMARK  241  A    between atoms: _595  and  _598
REMARK  242  A    between atoms: _598  and  _599
REMARK  243  A    between atoms: _599  and  _600
REMARK  244  A    between atoms: _603  and  _605
REMARK  245  A    between atoms: _605  and  _606
REMARK  246  A    between atoms: _605  and  _608
REMARK  247  A    between atoms: _608  and  _609
REMARK  248  A    between atoms: _609  and  _610
REMARK  249  A    between atoms: _610  and  _611
REMARK  250  A    between atoms: _620  and  _622
REMARK  251  A    between atoms: _622  and  _623
REMARK  252  A    between atoms: _622  and  _625
REMARK  253  A    between atoms: _625  and  _626
REMARK  254  A    between atoms: _631  and  _633
REMARK  255  A    between atoms: _633  and  _634
REMARK  256  A    between atoms: _633  and  _636
REMARK  257  A    between atoms: _636  and  _637
REMARK  258  A    between atoms: _637  and  _638
REMARK  259  A    between atoms: _640  and  _642
REMARK  260  A    between atoms: _642  and  _643
REMARK  261  A    between atoms: _642  and  _645
REMARK  262  A    between atoms: _645  and  _646
REMARK  263  A    between atoms: _651  and  _652
REMARK  264  A    between atoms: _654  and  _656
REMARK  265  A    between atoms: _656  and  _657
REMARK  266  A    between atoms: _656  and  _659
REMARK  267  A    between atoms: _661  and  _663
REMARK  268  A    between atoms: _663  and  _664
REMARK  269  A    between atoms: _663  and  _666
REMARK  270  A    between atoms: _666  and  _667
REMARK  271  A    between atoms: _672  and  _673
REMARK  272  A    between atoms: _675  and  _677
REMARK  273  A    between atoms: _677  and  _678
REMARK  274  A    between atoms: _677  and  _680
REMARK  275  A    between atoms: _680  and  _681
REMARK  276  A    between atoms: _684  and  _686
REMARK  277  A    between atoms: _686  and  _687
REMARK  278  A    between atoms: _686  and  _689
REMARK  279  A    between atoms: _692  and  _694
REMARK  280  A    between atoms: _694  and  _695
REMARK  281  A    between atoms: _694  and  _697
REMARK  282  A    between atoms: _697  and  _698
REMARK  283  A    between atoms: _703  and  _704
REMARK  284  A    between atoms: _706  and  _708
REMARK  285  A    between atoms: _708  and  _709
REMARK  286  A    between atoms: _708  and  _711
REMARK  287  A    between atoms: _711  and  _712
REMARK  288  A    between atoms: _718  and  _720
REMARK  289  A    between atoms: _720  and  _721
REMARK  290  A    between atoms: _724  and  _726
REMARK  291  A    between atoms: _726  and  _727
REMARK  292  A    between atoms: _726  and  _729
REMARK  293  A    between atoms: _732  and  _734
REMARK  294  A    between atoms: _734  and  _735
REMARK  295  A    between atoms: _734  and  _737
REMARK  296  A    between atoms: _737  and  _738
REMARK  297  A    between atoms: _741  and  _743
REMARK  298  A    between atoms: _743  and  _744
REMARK  299  A    between atoms: _746  and  _748
REMARK  300  A    between atoms: _748  and  _749
REMARK  301  A    between atoms: _748  and  _751
REMARK  302  A    between atoms: _751  and  _752
REMARK  303  A    between atoms: _752  and  _753
REMARK  304  A    between atoms: _756  and  _758
REMARK  305  A    between atoms: _758  and  _759
REMARK  306  A    between atoms: _758  and  _761
REMARK  307  A    between atoms: _761  and  _762
REMARK                            x       y       z     vdW  Elec       q    Type
REMARK                         _______ _______ _______ _____ _____    ______ ____
ROOT
ATOM      1  O   HOH     1     -32.502  21.683 -17.735  0.00  0.00    +0.000 OA
ENDROOT
TORSDOF 0
