REMARK  Name = ../refined-set-2016/3ipq/3ipq_pocket.pdb
REMARK  294 active torsions:
REMARK  status: ('A' for Active; 'I' for Inactive)
REMARK    1  A    between atoms: _1  and  _3
REMARK    2  A    between atoms: _3  and  _4
REMARK    3  A    between atoms: _3  and  _6
REMARK    4  A    between atoms: _6  and  _7
REMARK    5  A    between atoms: _7  and  _8
REMARK    6  A    between atoms: _13  and  _15
REMARK    7  A    between atoms: _15  and  _16
REMARK    8  A    between atoms: _15  and  _18
REMARK    9  A    between atoms: _18  and  _19
REMARK   10  A    between atoms: _19  and  _20
REMARK   11  A    between atoms: _20  and  _21
REMARK   12  A    between atoms: _30  and  _32
REMARK   13  A    between atoms: _32  and  _33
REMARK   14  A    between atoms: _32  and  _35
REMARK   15  A    between atoms: _35  and  _36
REMARK   16  A    between atoms: _42  and  _44
REMARK   17  A    between atoms: _44  and  _45
REMARK   18  A    between atoms: _48  and  _50
REMARK   19  A    between atoms: _50  and  _51
REMARK   20  A    between atoms: _50  and  _53
REMARK   21  A    between atoms: _53  and  _54
REMARK   22  A    between atoms: _59  and  _61
REMARK   23  A    between atoms: _61  and  _62
REMARK   24  A    between atoms: _61  and  _64
REMARK   25  A    between atoms: _64  and  _65
REMARK   26  A    between atoms: _71  and  _73
REMARK   27  A    between atoms: _73  and  _74
REMARK   28  A    between atoms: _73  and  _76
REMARK   29  A    between atoms: _76  and  _77
REMARK   30  A    between atoms: _80  and  _82
REMARK   31  A    between atoms: _82  and  _83
REMARK   32  A    between atoms: _82  and  _85
REMARK   33  A    between atoms: _85  and  _86
REMARK   34  A    between atoms: _86  and  _87
REMARK   35  A    between atoms: _90  and  _92
REMARK   36  A    between atoms: _92  and  _93
REMARK   37  A    between atoms: _92  and  _95
REMARK   38  A    between atoms: _95  and  _96
REMARK   39  A    between atoms: _99  and  _101
REMARK   40  A    between atoms: _101  and  _102
REMARK   41  A    between atoms: _105  and  _107
REMARK   42  A    between atoms: _107  and  _108
REMARK   43  A    between atoms: _107  and  _110
REMARK   44  A    between atoms: _110  and  _111
REMARK   45  A    between atoms: _114  and  _116
REMARK   46  A    between atoms: _116  and  _117
REMARK   47  A    between atoms: _116  and  _119
REMARK   48  A    between atoms: _122  and  _124
REMARK   49  A    between atoms: _124  and  _125
REMARK   50  A    between atoms: _124  and  _127
REMARK   51  A    between atoms: _127  and  _128
REMARK   52  A    between atoms: _130  and  _132
REMARK   53  A    between atoms: _132  and  _133
REMARK   54  A    between atoms: _132  and  _135
REMARK   55  A    between atoms: _138  and  _140
REMARK   56  A    between atoms: _140  and  _141
REMARK   57  A    between atoms: _140  and  _143
REMARK   58  A    between atoms: _143  and  _144
REMARK   59  A    between atoms: _144  and  _145
REMARK   60  A    between atoms: _150  and  _152
REMARK   61  A    between atoms: _152  and  _153
REMARK   62  A    between atoms: _152  and  _155
REMARK   63  A    between atoms: _155  and  _156
REMARK   64  A    between atoms: _156  and  _157
REMARK   65  A    between atoms: _160  and  _162
REMARK   66  A    between atoms: _162  and  _163
REMARK   67  A    between atoms: _162  and  _165
REMARK   68  A    between atoms: _165  and  _166
REMARK   69  A    between atoms: _169  and  _171
REMARK   70  A    between atoms: _171  and  _172
REMARK   71  A    between atoms: _175  and  _177
REMARK   72  A    between atoms: _177  and  _178
REMARK   73  A    between atoms: _177  and  _180
REMARK   74  A    between atoms: _180  and  _181
REMARK   75  A    between atoms: _184  and  _186
REMARK   76  A    between atoms: _186  and  _187
REMARK   77  A    between atoms: _186  and  _189
REMARK   78  A    between atoms: _189  and  _190
REMARK   79  A    between atoms: _190  and  _191
REMARK   80  A    between atoms: _194  and  _196
REMARK   81  A    between atoms: _196  and  _197
REMARK   82  A    between atoms: _196  and  _199
REMARK   83  A    between atoms: _202  and  _204
REMARK   84  A    between atoms: _204  and  _205
REMARK   85  A    between atoms: _204  and  _207
REMARK   86  A    between atoms: _207  and  _208
REMARK   87  A    between atoms: _208  and  _209
REMARK   88  A    between atoms: _211  and  _213
REMARK   89  A    between atoms: _213  and  _214
REMARK   90  A    between atoms: _213  and  _216
REMARK   91  A    between atoms: _216  and  _217
REMARK   92  A    between atoms: _220  and  _222
REMARK   93  A    between atoms: _222  and  _223
REMARK   94  A    between atoms: _222  and  _225
REMARK   95  A    between atoms: _225  and  _226
REMARK   96  A    between atoms: _229  and  _231
REMARK   97  A    between atoms: _231  and  _232
REMARK   98  A    between atoms: _231  and  _234
REMARK   99  A    between atoms: _234  and  _235
REMARK  100  A    between atoms: _235  and  _236
REMARK  101  A    between atoms: _239  and  _241
REMARK  102  A    between atoms: _241  and  _242
REMARK  103  A    between atoms: _241  and  _244
REMARK  104  A    between atoms: _244  and  _245
REMARK  105  A    between atoms: _248  and  _250
REMARK  106  A    between atoms: _250  and  _251
REMARK  107  A    between atoms: _250  and  _253
REMARK  108  A    between atoms: _253  and  _254
REMARK  109  A    between atoms: _256  and  _258
REMARK  110  A    between atoms: _258  and  _259
REMARK  111  A    between atoms: _258  and  _261
REMARK  112  A    between atoms: _261  and  _262
REMARK  113  A    between atoms: _262  and  _263
REMARK  114  A    between atoms: _263  and  _264
REMARK  115  A    between atoms: _273  and  _275
REMARK  116  A    between atoms: _275  and  _276
REMARK  117  A    between atoms: _275  and  _278
REMARK  118  A    between atoms: _278  and  _279
REMARK  119  A    between atoms: _279  and  _280
REMARK  120  A    between atoms: _280  and  _281
REMARK  121  A    between atoms: _290  and  _292
REMARK  122  A    between atoms: _292  and  _293
REMARK  123  A    between atoms: _292  and  _295
REMARK  124  A    between atoms: _295  and  _296
REMARK  125  A    between atoms: _299  and  _301
REMARK  126  A    between atoms: _301  and  _302
REMARK  127  A    between atoms: _301  and  _304
REMARK  128  A    between atoms: _304  and  _305
REMARK  129  A    between atoms: _308  and  _310
REMARK  130  A    between atoms: _310  and  _311
REMARK  131  A    between atoms: _310  and  _313
REMARK  132  A    between atoms: _313  and  _314
REMARK  133  A    between atoms: _320  and  _322
REMARK  134  A    between atoms: _322  and  _323
REMARK  135  A    between atoms: _322  and  _325
REMARK  136  A    between atoms: _325  and  _326
REMARK  137  A    between atoms: _329  and  _331
REMARK  138  A    between atoms: _331  and  _332
REMARK  139  A    between atoms: _331  and  _334
REMARK  140  A    between atoms: _334  and  _335
REMARK  141  A    between atoms: _335  and  _336
REMARK  142  A    between atoms: _336  and  _337
REMARK  143  A    between atoms: _337  and  _338
REMARK  144  A    between atoms: _342  and  _344
REMARK  145  A    between atoms: _344  and  _345
REMARK  146  A    between atoms: _344  and  _347
REMARK  147  A    between atoms: _347  and  _348
REMARK  148  A    between atoms: _351  and  _353
REMARK  149  A    between atoms: _353  and  _354
REMARK  150  A    between atoms: _353  and  _356
REMARK  151  A    between atoms: _356  and  _357
REMARK  152  A    between atoms: _363  and  _365
REMARK  153  A    between atoms: _365  and  _366
REMARK  154  A    between atoms: _365  and  _368
REMARK  155  A    between atoms: _368  and  _369
REMARK  156  A    between atoms: _374  and  _375
REMARK  157  A    between atoms: _377  and  _379
REMARK  158  A    between atoms: _379  and  _380
REMARK  159  A    between atoms: _379  and  _382
REMARK  160  A    between atoms: _382  and  _383
REMARK  161  A    between atoms: _388  and  _390
REMARK  162  A    between atoms: _390  and  _391
REMARK  163  A    between atoms: _390  and  _393
REMARK  164  A    between atoms: _393  and  _394
REMARK  165  A    between atoms: _394  and  _395
REMARK  166  A    between atoms: _395  and  _396
REMARK  167  A    between atoms: _405  and  _407
REMARK  168  A    between atoms: _407  and  _408
REMARK  169  A    between atoms: _407  and  _410
REMARK  170  A    between atoms: _410  and  _411
REMARK  171  A    between atoms: _414  and  _416
REMARK  172  A    between atoms: _416  and  _417
REMARK  173  A    between atoms: _416  and  _419
REMARK  174  A    between atoms: _419  and  _420
REMARK  175  A    between atoms: _426  and  _428
REMARK  176  A    between atoms: _428  and  _429
REMARK  177  A    between atoms: _432  and  _434
REMARK  178  A    between atoms: _434  and  _435
REMARK  179  A    between atoms: _438  and  _440
REMARK  180  A    between atoms: _440  and  _441
REMARK  181  A    between atoms: _443  and  _445
REMARK  182  A    between atoms: _445  and  _446
REMARK  183  A    between atoms: _445  and  _448
REMARK  184  A    between atoms: _448  and  _449
REMARK  185  A    between atoms: _452  and  _454
REMARK  186  A    between atoms: _454  and  _455
REMARK  187  A    between atoms: _454  and  _457
REMARK  188  A    between atoms: _457  and  _458
REMARK  189  A    between atoms: _458  and  _459
REMARK  190  A    between atoms: _464  and  _466
REMARK  191  A    between atoms: _466  and  _467
REMARK  192  A    between atoms: _466  and  _469
REMARK  193  A    between atoms: _472  and  _474
REMARK  194  A    between atoms: _474  and  _475
REMARK  195  A    between atoms: _474  and  _477
REMARK  196  A    between atoms: _477  and  _478
REMARK  197  A    between atoms: _478  and  _479
REMARK  198  A    between atoms: _482  and  _484
REMARK  199  A    between atoms: _484  and  _485
REMARK  200  A    between atoms: _484  and  _487
REMARK  201  A    between atoms: _487  and  _488
REMARK  202  A    between atoms: _494  and  _496
REMARK  203  A    between atoms: _496  and  _497
REMARK  204  A    between atoms: _496  and  _499
REMARK  205  A    between atoms: _499  and  _500
REMARK  206  A    between atoms: _503  and  _505
REMARK  207  A    between atoms: _505  and  _506
REMARK  208  A    between atoms: _505  and  _508
REMARK  209  A    between atoms: _508  and  _509
REMARK  210  A    between atoms: _515  and  _516
REMARK  211  A    between atoms: _521  and  _523
REMARK  212  A    between atoms: _523  and  _524
REMARK  213  A    between atoms: _523  and  _526
REMARK  214  A    between atoms: _526  and  _527
REMARK  215  A    between atoms: _530  and  _532
REMARK  216  A    between atoms: _532  and  _533
REMARK  217  A    between atoms: _532  and  _535
REMARK  218  A    between atoms: _535  and  _536
REMARK  219  A    between atoms: _542  and  _544
REMARK  220  A    between atoms: _544  and  _545
REMARK  221  A    between atoms: _544  and  _547
REMARK  222  A    between atoms: _547  and  _548
REMARK  223  A    between atoms: _548  and  _549
REMARK  224  A    between atoms: _552  and  _554
REMARK  225  A    between atoms: _554  and  _555
REMARK  226  A    between atoms: _554  and  _557
REMARK  227  A    between atoms: _557  and  _558
REMARK  228  A    between atoms: _560  and  _562
REMARK  229  A    between atoms: _562  and  _563
REMARK  230  A    between atoms: _562  and  _565
REMARK  231  A    between atoms: _565  and  _566
REMARK  232  A    between atoms: _569  and  _571
REMARK  233  A    between atoms: _571  and  _572
REMARK  234  A    between atoms: _571  and  _574
REMARK  235  A    between atoms: _577  and  _579
REMARK  236  A    between atoms: _579  and  _580
REMARK  237  A    between atoms: _579  and  _582
REMARK  238  A    between atoms: _582  and  _583
REMARK  239  A    between atoms: _588  and  _590
REMARK  240  A    between atoms: _590  and  _591
REMARK  241  A    between atoms: _590  and  _593
REMARK  242  A    between atoms: _593  and  _594
REMARK  243  A    between atoms: _596  and  _598
REMARK  244  A    between atoms: _598  and  _599
REMARK  245  A    between atoms: _598  and  _601
REMARK  246  A    between atoms: _601  and  _602
REMARK  247  A    between atoms: _602  and  _603
REMARK  248  A    between atoms: _606  and  _608
REMARK  249  A    between atoms: _608  and  _609
REMARK  250  A    between atoms: _608  and  _611
REMARK  251  A    between atoms: _611  and  _612
REMARK  252  A    between atoms: _612  and  _613
REMARK  253  A    between atoms: _618  and  _620
REMARK  254  A    between atoms: _620  and  _621
REMARK  255  A    between atoms: _620  and  _623
REMARK  256  A    between atoms: _626  and  _628
REMARK  257  A    between atoms: _628  and  _629
REMARK  258  A    between atoms: _628  and  _631
REMARK  259  A    between atoms: _631  and  _632
REMARK  260  A    between atoms: _638  and  _640
REMARK  261  A    between atoms: _640  and  _641
REMARK  262  A    between atoms: _640  and  _643
REMARK  263  A    between atoms: _643  and  _644
REMARK  264  A    between atoms: _647  and  _649
REMARK  265  A    between atoms: _649  and  _650
REMARK  266  A    between atoms: _649  and  _652
REMARK  267  A    between atoms: _652  and  _653
REMARK  268  A    between atoms: _653  and  _654
REMARK  269  A    between atoms: _654  and  _655
REMARK  270  A    between atoms: _655  and  _656
REMARK  271  A    between atoms: _660  and  _662
REMARK  272  A    between atoms: _662  and  _663
REMARK  273  A    between atoms: _662  and  _665
REMARK  274  A    between atoms: _665  and  _666
REMARK  275  A    between atoms: _666  and  _667
REMARK  276  A    between atoms: _667  and  _668
REMARK  277  A    between atoms: _668  and  _669
REMARK  278  A    between atoms: _673  and  _675
REMARK  279  A    between atoms: _675  and  _676
REMARK  280  A    between atoms: _675  and  _678
REMARK  281  A    between atoms: _678  and  _679
REMARK  282  A    between atoms: _683  and  _684
REMARK  283  A    between atoms: _689  and  _691
REMARK  284  A    between atoms: _691  and  _692
REMARK  285  A    between atoms: _691  and  _694
REMARK  286  A    between atoms: _694  and  _695
REMARK  287  A    between atoms: _698  and  _700
REMARK  288  A    between atoms: _700  and  _701
REMARK  289  A    between atoms: _700  and  _703
REMARK  290  A    between atoms: _703  and  _704
REMARK  291  A    between atoms: _714  and  _716
REMARK  292  A    between atoms: _716  and  _717
REMARK  293  A    between atoms: _716  and  _719
REMARK  294  A    between atoms: _719  and  _720
REMARK                            x       y       z     vdW  Elec       q    Type
REMARK                         _______ _______ _______ _____ _____    ______ ____
ROOT
ATOM      1  CB  GLN A   1      55.514  23.964   1.144  0.00  0.00    +0.035 C 
ENDROOT
BRANCH   1   2
ATOM      2  CA  GLN A   1      56.345  22.895   1.825  0.00  0.00    +0.134 C 
BRANCH   2   3
ATOM      3  N   GLN A   1      57.098  23.488   2.905  0.00  0.00    -0.239 NA
ATOM      4  H   GLN A   1      57.480  24.448   2.784  0.00  0.00    +0.142 HD
ENDBRANCH   2   3
BRANCH   2   5
ATOM      5  C   GLN A   1      57.195  22.183   0.790  0.00  0.00    +0.224 C 
ATOM      6  O   GLN A   1      56.643  21.501  -0.095  0.00  0.00    -0.287 OA
ENDBRANCH   2   5
ENDBRANCH   1   2
BRANCH   1   7
ATOM      7  CG  GLN A   1      54.496  24.582   2.068  0.00  0.00    +0.087 C 
BRANCH   7   8
ATOM      8  CD  GLN A   1      53.244  24.956   1.336  0.00  0.00    +0.219 C 
ATOM      9  NE2 GLN A   1      52.186  24.171   1.546  0.00  0.00    -0.329 N 
ATOM     10 HE21 GLN A   1      52.259  23.363   2.196  0.00  0.00    +0.145 HD
ATOM     11 HE22 GLN A   1      51.288  24.367   1.059  0.00  0.00    +0.145 HD
ATOM     12  OE1 GLN A   1      53.222  25.942   0.568  0.00  0.00    -0.275 OA
ENDBRANCH   7   8
ENDBRANCH   1   7
TORSDOF 5
REMARK  Name = ../refined-set-2016/3ipq/3ipq_pocket.pdb
REMARK  294 active torsions:
REMARK  status: ('A' for Active; 'I' for Inactive)
REMARK    1  A    between atoms: _1  and  _3
REMARK    2  A    between atoms: _3  and  _4
REMARK    3  A    between atoms: _3  and  _6
REMARK    4  A    between atoms: _6  and  _7
REMARK    5  A    between atoms: _7  and  _8
REMARK    6  A    between atoms: _13  and  _15
REMARK    7  A    between atoms: _15  and  _16
REMARK    8  A    between atoms: _15  and  _18
REMARK    9  A    between atoms: _18  and  _19
REMARK   10  A    between atoms: _19  and  _20
REMARK   11  A    between atoms: _20  and  _21
REMARK   12  A    between atoms: _30  and  _32
REMARK   13  A    between atoms: _32  and  _33
REMARK   14  A    between atoms: _32  and  _35
REMARK   15  A    between atoms: _35  and  _36
REMARK   16  A    between atoms: _42  and  _44
REMARK   17  A    between atoms: _44  and  _45
REMARK   18  A    between atoms: _48  and  _50
REMARK   19  A    between atoms: _50  and  _51
REMARK   20  A    between atoms: _50  and  _53
REMARK   21  A    between atoms: _53  and  _54
REMARK   22  A    between atoms: _59  and  _61
REMARK   23  A    between atoms: _61  and  _62
REMARK   24  A    between atoms: _61  and  _64
REMARK   25  A    between atoms: _64  and  _65
REMARK   26  A    between atoms: _71  and  _73
REMARK   27  A    between atoms: _73  and  _74
REMARK   28  A    between atoms: _73  and  _76
REMARK   29  A    between atoms: _76  and  _77
REMARK   30  A    between atoms: _80  and  _82
REMARK   31  A    between atoms: _82  and  _83
REMARK   32  A    between atoms: _82  and  _85
REMARK   33  A    between atoms: _85  and  _86
REMARK   34  A    between atoms: _86  and  _87
REMARK   35  A    between atoms: _90  and  _92
REMARK   36  A    between atoms: _92  and  _93
REMARK   37  A    between atoms: _92  and  _95
REMARK   38  A    between atoms: _95  and  _96
REMARK   39  A    between atoms: _99  and  _101
REMARK   40  A    between atoms: _101  and  _102
REMARK   41  A    between atoms: _105  and  _107
REMARK   42  A    between atoms: _107  and  _108
REMARK   43  A    between atoms: _107  and  _110
REMARK   44  A    between atoms: _110  and  _111
REMARK   45  A    between atoms: _114  and  _116
REMARK   46  A    between atoms: _116  and  _117
REMARK   47  A    between atoms: _116  and  _119
REMARK   48  A    between atoms: _122  and  _124
REMARK   49  A    between atoms: _124  and  _125
REMARK   50  A    between atoms: _124  and  _127
REMARK   51  A    between atoms: _127  and  _128
REMARK   52  A    between atoms: _130  and  _132
REMARK   53  A    between atoms: _132  and  _133
REMARK   54  A    between atoms: _132  and  _135
REMARK   55  A    between atoms: _138  and  _140
REMARK   56  A    between atoms: _140  and  _141
REMARK   57  A    between atoms: _140  and  _143
REMARK   58  A    between atoms: _143  and  _144
REMARK   59  A    between atoms: _144  and  _145
REMARK   60  A    between atoms: _150  and  _152
REMARK   61  A    between atoms: _152  and  _153
REMARK   62  A    between atoms: _152  and  _155
REMARK   63  A    between atoms: _155  and  _156
REMARK   64  A    between atoms: _156  and  _157
REMARK   65  A    between atoms: _160  and  _162
REMARK   66  A    between atoms: _162  and  _163
REMARK   67  A    between atoms: _162  and  _165
REMARK   68  A    between atoms: _165  and  _166
REMARK   69  A    between atoms: _169  and  _171
REMARK   70  A    between atoms: _171  and  _172
REMARK   71  A    between atoms: _175  and  _177
REMARK   72  A    between atoms: _177  and  _178
REMARK   73  A    between atoms: _177  and  _180
REMARK   74  A    between atoms: _180  and  _181
REMARK   75  A    between atoms: _184  and  _186
REMARK   76  A    between atoms: _186  and  _187
REMARK   77  A    between atoms: _186  and  _189
REMARK   78  A    between atoms: _189  and  _190
REMARK   79  A    between atoms: _190  and  _191
REMARK   80  A    between atoms: _194  and  _196
REMARK   81  A    between atoms: _196  and  _197
REMARK   82  A    between atoms: _196  and  _199
REMARK   83  A    between atoms: _202  and  _204
REMARK   84  A    between atoms: _204  and  _205
REMARK   85  A    between atoms: _204  and  _207
REMARK   86  A    between atoms: _207  and  _208
REMARK   87  A    between atoms: _208  and  _209
REMARK   88  A    between atoms: _211  and  _213
REMARK   89  A    between atoms: _213  and  _214
REMARK   90  A    between atoms: _213  and  _216
REMARK   91  A    between atoms: _216  and  _217
REMARK   92  A    between atoms: _220  and  _222
REMARK   93  A    between atoms: _222  and  _223
REMARK   94  A    between atoms: _222  and  _225
REMARK   95  A    between atoms: _225  and  _226
REMARK   96  A    between atoms: _229  and  _231
REMARK   97  A    between atoms: _231  and  _232
REMARK   98  A    between atoms: _231  and  _234
REMARK   99  A    between atoms: _234  and  _235
REMARK  100  A    between atoms: _235  and  _236
REMARK  101  A    between atoms: _239  and  _241
REMARK  102  A    between atoms: _241  and  _242
REMARK  103  A    between atoms: _241  and  _244
REMARK  104  A    between atoms: _244  and  _245
REMARK  105  A    between atoms: _248  and  _250
REMARK  106  A    between atoms: _250  and  _251
REMARK  107  A    between atoms: _250  and  _253
REMARK  108  A    between atoms: _253  and  _254
REMARK  109  A    between atoms: _256  and  _258
REMARK  110  A    between atoms: _258  and  _259
REMARK  111  A    between atoms: _258  and  _261
REMARK  112  A    between atoms: _261  and  _262
REMARK  113  A    between atoms: _262  and  _263
REMARK  114  A    between atoms: _263  and  _264
REMARK  115  A    between atoms: _273  and  _275
REMARK  116  A    between atoms: _275  and  _276
REMARK  117  A    between atoms: _275  and  _278
REMARK  118  A    between atoms: _278  and  _279
REMARK  119  A    between atoms: _279  and  _280
REMARK  120  A    between atoms: _280  and  _281
REMARK  121  A    between atoms: _290  and  _292
REMARK  122  A    between atoms: _292  and  _293
REMARK  123  A    between atoms: _292  and  _295
REMARK  124  A    between atoms: _295  and  _296
REMARK  125  A    between atoms: _299  and  _301
REMARK  126  A    between atoms: _301  and  _302
REMARK  127  A    between atoms: _301  and  _304
REMARK  128  A    between atoms: _304  and  _305
REMARK  129  A    between atoms: _308  and  _310
REMARK  130  A    between atoms: _310  and  _311
REMARK  131  A    between atoms: _310  and  _313
REMARK  132  A    between atoms: _313  and  _314
REMARK  133  A    between atoms: _320  and  _322
REMARK  134  A    between atoms: _322  and  _323
REMARK  135  A    between atoms: _322  and  _325
REMARK  136  A    between atoms: _325  and  _326
REMARK  137  A    between atoms: _329  and  _331
REMARK  138  A    between atoms: _331  and  _332
REMARK  139  A    between atoms: _331  and  _334
REMARK  140  A    between atoms: _334  and  _335
REMARK  141  A    between atoms: _335  and  _336
REMARK  142  A    between atoms: _336  and  _337
REMARK  143  A    between atoms: _337  and  _338
REMARK  144  A    between atoms: _342  and  _344
REMARK  145  A    between atoms: _344  and  _345
REMARK  146  A    between atoms: _344  and  _347
REMARK  147  A    between atoms: _347  and  _348
REMARK  148  A    between atoms: _351  and  _353
REMARK  149  A    between atoms: _353  and  _354
REMARK  150  A    between atoms: _353  and  _356
REMARK  151  A    between atoms: _356  and  _357
REMARK  152  A    between atoms: _363  and  _365
REMARK  153  A    between atoms: _365  and  _366
REMARK  154  A    between atoms: _365  and  _368
REMARK  155  A    between atoms: _368  and  _369
REMARK  156  A    between atoms: _374  and  _375
REMARK  157  A    between atoms: _377  and  _379
REMARK  158  A    between atoms: _379  and  _380
REMARK  159  A    between atoms: _379  and  _382
REMARK  160  A    between atoms: _382  and  _383
REMARK  161  A    between atoms: _388  and  _390
REMARK  162  A    between atoms: _390  and  _391
REMARK  163  A    between atoms: _390  and  _393
REMARK  164  A    between atoms: _393  and  _394
REMARK  165  A    between atoms: _394  and  _395
REMARK  166  A    between atoms: _395  and  _396
REMARK  167  A    between atoms: _405  and  _407
REMARK  168  A    between atoms: _407  and  _408
REMARK  169  A    between atoms: _407  and  _410
REMARK  170  A    between atoms: _410  and  _411
REMARK  171  A    between atoms: _414  and  _416
REMARK  172  A    between atoms: _416  and  _417
REMARK  173  A    between atoms: _416  and  _419
REMARK  174  A    between atoms: _419  and  _420
REMARK  175  A    between atoms: _426  and  _428
REMARK  176  A    between atoms: _428  and  _429
REMARK  177  A    between atoms: _432  and  _434
REMARK  178  A    between atoms: _434  and  _435
REMARK  179  A    between atoms: _438  and  _440
REMARK  180  A    between atoms: _440  and  _441
REMARK  181  A    between atoms: _443  and  _445
REMARK  182  A    between atoms: _445  and  _446
REMARK  183  A    between atoms: _445  and  _448
REMARK  184  A    between atoms: _448  and  _449
REMARK  185  A    between atoms: _452  and  _454
REMARK  186  A    between atoms: _454  and  _455
REMARK  187  A    between atoms: _454  and  _457
REMARK  188  A    between atoms: _457  and  _458
REMARK  189  A    between atoms: _458  and  _459
REMARK  190  A    between atoms: _464  and  _466
REMARK  191  A    between atoms: _466  and  _467
REMARK  192  A    between atoms: _466  and  _469
REMARK  193  A    between atoms: _472  and  _474
REMARK  194  A    between atoms: _474  and  _475
REMARK  195  A    between atoms: _474  and  _477
REMARK  196  A    between atoms: _477  and  _478
REMARK  197  A    between atoms: _478  and  _479
REMARK  198  A    between atoms: _482  and  _484
REMARK  199  A    between atoms: _484  and  _485
REMARK  200  A    between atoms: _484  and  _487
REMARK  201  A    between atoms: _487  and  _488
REMARK  202  A    between atoms: _494  and  _496
REMARK  203  A    between atoms: _496  and  _497
REMARK  204  A    between atoms: _496  and  _499
REMARK  205  A    between atoms: _499  and  _500
REMARK  206  A    between atoms: _503  and  _505
REMARK  207  A    between atoms: _505  and  _506
REMARK  208  A    between atoms: _505  and  _508
REMARK  209  A    between atoms: _508  and  _509
REMARK  210  A    between atoms: _515  and  _516
REMARK  211  A    between atoms: _521  and  _523
REMARK  212  A    between atoms: _523  and  _524
REMARK  213  A    between atoms: _523  and  _526
REMARK  214  A    between atoms: _526  and  _527
REMARK  215  A    between atoms: _530  and  _532
REMARK  216  A    between atoms: _532  and  _533
REMARK  217  A    between atoms: _532  and  _535
REMARK  218  A    between atoms: _535  and  _536
REMARK  219  A    between atoms: _542  and  _544
REMARK  220  A    between atoms: _544  and  _545
REMARK  221  A    between atoms: _544  and  _547
REMARK  222  A    between atoms: _547  and  _548
REMARK  223  A    between atoms: _548  and  _549
REMARK  224  A    between atoms: _552  and  _554
REMARK  225  A    between atoms: _554  and  _555
REMARK  226  A    between atoms: _554  and  _557
REMARK  227  A    between atoms: _557  and  _558
REMARK  228  A    between atoms: _560  and  _562
REMARK  229  A    between atoms: _562  and  _563
REMARK  230  A    between atoms: _562  and  _565
REMARK  231  A    between atoms: _565  and  _566
REMARK  232  A    between atoms: _569  and  _571
REMARK  233  A    between atoms: _571  and  _572
REMARK  234  A    between atoms: _571  and  _574
REMARK  235  A    between atoms: _577  and  _579
REMARK  236  A    between atoms: _579  and  _580
REMARK  237  A    between atoms: _579  and  _582
REMARK  238  A    between atoms: _582  and  _583
REMARK  239  A    between atoms: _588  and  _590
REMARK  240  A    between atoms: _590  and  _591
REMARK  241  A    between atoms: _590  and  _593
REMARK  242  A    between atoms: _593  and  _594
REMARK  243  A    between atoms: _596  and  _598
REMARK  244  A    between atoms: _598  and  _599
REMARK  245  A    between atoms: _598  and  _601
REMARK  246  A    between atoms: _601  and  _602
REMARK  247  A    between atoms: _602  and  _603
REMARK  248  A    between atoms: _606  and  _608
REMARK  249  A    between atoms: _608  and  _609
REMARK  250  A    between atoms: _608  and  _611
REMARK  251  A    between atoms: _611  and  _612
REMARK  252  A    between atoms: _612  and  _613
REMARK  253  A    between atoms: _618  and  _620
REMARK  254  A    between atoms: _620  and  _621
REMARK  255  A    between atoms: _620  and  _623
REMARK  256  A    between atoms: _626  and  _628
REMARK  257  A    between atoms: _628  and  _629
REMARK  258  A    between atoms: _628  and  _631
REMARK  259  A    between atoms: _631  and  _632
REMARK  260  A    between atoms: _638  and  _640
REMARK  261  A    between atoms: _640  and  _641
REMARK  262  A    between atoms: _640  and  _643
REMARK  263  A    between atoms: _643  and  _644
REMARK  264  A    between atoms: _647  and  _649
REMARK  265  A    between atoms: _649  and  _650
REMARK  266  A    between atoms: _649  and  _652
REMARK  267  A    between atoms: _652  and  _653
REMARK  268  A    between atoms: _653  and  _654
REMARK  269  A    between atoms: _654  and  _655
REMARK  270  A    between atoms: _655  and  _656
REMARK  271  A    between atoms: _660  and  _662
REMARK  272  A    between atoms: _662  and  _663
REMARK  273  A    between atoms: _662  and  _665
REMARK  274  A    between atoms: _665  and  _666
REMARK  275  A    between atoms: _666  and  _667
REMARK  276  A    between atoms: _667  and  _668
REMARK  277  A    between atoms: _668  and  _669
REMARK  278  A    between atoms: _673  and  _675
REMARK  279  A    between atoms: _675  and  _676
REMARK  280  A    between atoms: _675  and  _678
REMARK  281  A    between atoms: _678  and  _679
REMARK  282  A    between atoms: _683  and  _684
REMARK  283  A    between atoms: _689  and  _691
REMARK  284  A    between atoms: _691  and  _692
REMARK  285  A    between atoms: _691  and  _694
REMARK  286  A    between atoms: _694  and  _695
REMARK  287  A    between atoms: _698  and  _700
REMARK  288  A    between atoms: _700  and  _701
REMARK  289  A    between atoms: _700  and  _703
REMARK  290  A    between atoms: _703  and  _704
REMARK  291  A    between atoms: _714  and  _716
REMARK  292  A    between atoms: _716  and  _717
REMARK  293  A    between atoms: _716  and  _719
REMARK  294  A    between atoms: _719  and  _720
REMARK                            x       y       z     vdW  Elec       q    Type
REMARK                         _______ _______ _______ _____ _____    ______ ____
ROOT
ATOM      1  C   GLU A   7      44.652   9.445  -1.739  0.00  0.00    +0.241 C 
ATOM      2  O   GLU A   7      45.376   9.763  -0.806  0.00  0.00    -0.273 OA
ATOM      3  N   LEU A   8      44.683  10.079  -2.901  0.00  0.00    -0.297 N 
ATOM      4  H   LEU A   8      44.101   9.730  -3.689  0.00  0.00    +0.150 HD
ENDROOT
BRANCH   1   5
ATOM      5  CA  GLU A   7      43.660   8.307  -1.583  0.00  0.00    +0.149 C 
BRANCH   5   8
ATOM      6  C   THR A   6      41.563   9.479  -1.773  0.00  0.00    +0.243 C 
ATOM      7  O   THR A   6      41.785  10.083  -0.717  0.00  0.00    -0.273 OA
ATOM      8  N   GLU A   7      42.424   8.604  -2.271  0.00  0.00    -0.297 N 
ATOM      9  H   GLU A   7      42.208   8.125  -3.168  0.00  0.00    +0.150 HD
BRANCH   6  10
ATOM     10  CA  THR A   6      40.304   9.771  -2.592  0.00  0.00    +0.176 C 
BRANCH  10  12
ATOM     11  C   PHE A   5      41.426  10.375  -4.676  0.00  0.00    +0.241 C 
ATOM     12  N   THR A   6      40.529   9.625  -4.038  0.00  0.00    -0.295 N 
ATOM     13  H   THR A   6      39.978   8.923  -4.572  0.00  0.00    +0.150 HD
ATOM     14  O   PHE A   5      42.084  11.239  -4.106  0.00  0.00    -0.273 OA
BRANCH  11  15
ATOM     15  CA  PHE A   5      41.674  10.097  -6.163  0.00  0.00    +0.153 C 
BRANCH  15  18
ATOM     16  C   HIS A   4      42.911   7.943  -5.980  0.00  0.00    +0.241 C 
ATOM     17  O   HIS A   4      43.782   8.395  -5.242  0.00  0.00    -0.273 OA
ATOM     18  N   PHE A   5      41.887   8.657  -6.447  0.00  0.00    -0.297 N 
ATOM     19  H   PHE A   5      41.192   8.173  -7.050  0.00  0.00    +0.150 HD
BRANCH  16  20
ATOM     20  CA  HIS A   4      42.921   6.430  -6.401  0.00  0.00    +0.155 C 
BRANCH  20  23
ATOM     21  C   ALA A   3      41.109   5.783  -4.914  0.00  0.00    +0.241 C 
ATOM     22  O   ALA A   3      41.678   6.271  -3.942  0.00  0.00    -0.273 OA
ATOM     23  N   HIS A   4      41.639   5.793  -6.127  0.00  0.00    -0.297 N 
ATOM     24  H   HIS A   4      41.126   5.333  -6.906  0.00  0.00    +0.150 HD
BRANCH  21  25
ATOM     25  CA  ALA A   3      39.733   5.132  -4.765  0.00  0.00    +0.149 C 
ATOM     26  CB  ALA A   3      39.835   3.594  -4.662  0.00  0.00    +0.031 C 
BRANCH  25  29
ATOM     27  C   PHE A   2      38.454   6.764  -5.995  0.00  0.00    +0.241 C 
ATOM     28  O   PHE A   2      38.736   7.631  -5.175  0.00  0.00    -0.273 OA
ATOM     29  N   ALA A   3      38.893   5.521  -5.879  0.00  0.00    -0.297 N 
ATOM     30  H   ALA A   3      38.632   4.815  -6.596  0.00  0.00    +0.150 HD
BRANCH  27  31
ATOM     31  CA  PHE A   2      37.614   7.100  -7.218  0.00  0.00    +0.153 C 
BRANCH  31  33
ATOM     32  C   ARG A   1      39.281   6.630  -8.954  0.00  0.00    +0.238 C 
ATOM     33  N   PHE A   2      38.087   6.420  -8.418  0.00  0.00    -0.297 N 
ATOM     34  H   PHE A   2      37.454   5.734  -8.877  0.00  0.00    +0.150 HD
ATOM     35  O   ARG A   1      40.075   7.486  -8.568  0.00  0.00    -0.274 OA
BRANCH  32  36
ATOM     36  CA  ARG A   1      39.613   5.740 -10.138  0.00  0.00    +0.145 C 
BRANCH  36  37
ATOM     37  N   ARG A   1      39.227   4.348  -9.866  0.00  0.00    -0.238 NA
ATOM     38  H   ARG A   1      38.498   3.912 -10.466  0.00  0.00    +0.142 HD
ENDBRANCH  36  37
BRANCH  36  39
ATOM     39  CB  ARG A   1      38.869   6.297 -11.343  0.00  0.00    +0.030 C 
BRANCH  39  40
ATOM     40  CG  ARG A   1      39.279   5.735 -12.680  0.00  0.00    +0.045 C 
BRANCH  40  41
ATOM     41  CD  ARG A   1      38.437   6.358 -13.799  0.00  0.00    +0.174 C 
BRANCH  41  42
ATOM     42  NE  ARG A   1      38.541   5.573 -15.031  0.00  0.00    -0.265 N 
ATOM     43  CZ  ARG A   1      37.591   4.789 -15.545  0.00  0.00    +0.342 C 
ATOM     44  NH2 ARG A   1      36.392   4.672 -14.976  0.00  0.00    -0.292 N 
ATOM     45 HH21 ARG A   1      36.175   5.200 -14.107  0.00  0.00    +0.255 HD
ATOM     46 HH22 ARG A   1      35.673   4.053 -15.401  0.00  0.00    +0.255 HD
ATOM     47  NH1 ARG A   1      37.842   4.122 -16.667  0.00  0.00    -0.292 N 
ATOM     48 HH11 ARG A   1      37.112   3.507 -17.081  0.00  0.00    +0.255 HD
ATOM     49 HH12 ARG A   1      38.768   4.215 -17.131  0.00  0.00    +0.255 HD
ATOM     50  HE  ARG A   1      39.438   5.632 -15.554  0.00  0.00    +0.259 HD
ENDBRANCH  41  42
ENDBRANCH  40  41
ENDBRANCH  39  40
ENDBRANCH  36  39
ENDBRANCH  32  36
ENDBRANCH  31  33
BRANCH  31  51
ATOM     51  CB  PHE A   2      36.155   6.752  -6.964  0.00  0.00    +0.055 C 
BRANCH  51  52
ATOM     52  CG  PHE A   2      35.505   7.597  -5.910  0.00  0.00    -0.020 A 
ATOM     53  CD2 PHE A   2      35.325   7.110  -4.634  0.00  0.00    -0.004 A 
ATOM     54  CE2 PHE A   2      34.724   7.892  -3.648  0.00  0.00    -0.000 A 
ATOM     55  CZ  PHE A   2      34.304   9.180  -3.951  0.00  0.00    -0.000 A 
ATOM     56  CE1 PHE A   2      34.481   9.676  -5.224  0.00  0.00    -0.000 A 
ATOM     57  CD1 PHE A   2      35.083   8.889  -6.201  0.00  0.00    -0.004 A 
ENDBRANCH  51  52
ENDBRANCH  31  51
ENDBRANCH  27  31
ENDBRANCH  25  29
ENDBRANCH  21  25
ENDBRANCH  20  23
BRANCH  20  58
ATOM     58  CB  HIS A   4      43.223   6.273  -7.888  0.00  0.00    +0.076 C 
BRANCH  58  59
ATOM     59  CG  HIS A   4      44.463   6.964  -8.335  0.00  0.00    +0.082 A 
ATOM     60  ND1 HIS A   4      45.721   6.445  -8.119  0.00  0.00    -0.227 NA
ATOM     61  CE1 HIS A   4      46.624   7.255  -8.640  0.00  0.00    +0.199 A 
ATOM     62  NE2 HIS A   4      45.998   8.283  -9.181  0.00  0.00    -0.221 NA
ATOM     63  CD2 HIS A   4      44.644   8.117  -9.018  0.00  0.00    +0.115 A 
ENDBRANCH  58  59
ENDBRANCH  20  58
ENDBRANCH  16  20
ENDBRANCH  15  18
BRANCH  15  64
ATOM     64  CB  PHE A   5      40.512  10.653  -7.003  0.00  0.00    +0.055 C 
BRANCH  64  65
ATOM     65  CG  PHE A   5      40.864  10.960  -8.450  0.00  0.00    -0.020 A 
ATOM     66  CD2 PHE A   5      42.179  11.224  -8.862  0.00  0.00    -0.004 A 
ATOM     67  CE2 PHE A   5      42.467  11.508 -10.189  0.00  0.00    -0.000 A 
ATOM     68  CZ  PHE A   5      41.455  11.525 -11.124  0.00  0.00    -0.000 A 
ATOM     69  CE1 PHE A   5      40.163  11.282 -10.745  0.00  0.00    -0.000 A 
ATOM     70  CD1 PHE A   5      39.863  11.016  -9.402  0.00  0.00    -0.004 A 
ENDBRANCH  64  65
ENDBRANCH  15  64
ENDBRANCH  11  15
ENDBRANCH  10  12
BRANCH  10  71
ATOM     71  CB  THR A   6      39.106   8.957  -2.066  0.00  0.00    +0.137 C 
ATOM     72  CG2 THR A   6      37.818   9.417  -2.726  0.00  0.00    +0.034 C 
BRANCH  71  73
ATOM     73  OG1 THR A   6      39.313   7.560  -2.302  0.00  0.00    -0.382 OA
ATOM     74  HG1 THR A   6      39.410   7.402  -3.274  0.00  0.00    +0.210 HD
ENDBRANCH  71  73
ENDBRANCH  10  71
ENDBRANCH   6  10
ENDBRANCH   5   8
BRANCH   5  75
ATOM     75  CB  GLU A   7      44.255   6.970  -2.049  0.00  0.00    +0.041 C 
BRANCH  75  76
ATOM     76  CG  GLU A   7      43.603   5.764  -1.432  0.00  0.00    +0.116 C 
BRANCH  76  77
ATOM     77  CD  GLU A   7      44.102   4.468  -2.063  0.00  0.00    +0.365 C 
ATOM     78  OE2 GLU A   7      45.337   4.280  -2.123  0.00  0.00    -0.246 OA
ATOM     79  OE1 GLU A   7      43.265   3.654  -2.515  0.00  0.00    -0.246 OA
ENDBRANCH  76  77
ENDBRANCH  75  76
ENDBRANCH   5  75
ENDBRANCH   1   5
BRANCH   3  80
ATOM     80  CA  LEU A   8      45.520  11.258  -3.095  0.00  0.00    +0.149 C 
BRANCH  80  81
ATOM     81  C   LEU A   8      45.056  12.432  -2.208  0.00  0.00    +0.241 C 
ATOM     82  O   LEU A   8      45.874  13.164  -1.701  0.00  0.00    -0.273 OA
ATOM     83  N   ALA A   9      43.754  12.615  -2.089  0.00  0.00    -0.297 N 
ATOM     84  H   ALA A   9      43.125  12.009  -2.654  0.00  0.00    +0.150 HD
BRANCH  83  85
ATOM     85  CA  ALA A   9      43.136  13.613  -1.215  0.00  0.00    +0.149 C 
ATOM     86  CB  ALA A   9      41.637  13.564  -1.358  0.00  0.00    +0.031 C 
BRANCH  85  87
ATOM     87  C   ALA A   9      43.548  13.433   0.244  0.00  0.00    +0.241 C 
ATOM     88  O   ALA A   9      43.776  14.418   0.955  0.00  0.00    -0.273 OA
ATOM     89  N   ILE A  10      43.630  12.182   0.696  0.00  0.00    -0.297 N 
ATOM     90  H   ILE A  10      43.321  11.408   0.074  0.00  0.00    +0.150 HD
BRANCH  89  91
ATOM     91  CA  ILE A  10      44.140  11.846   2.041  0.00  0.00    +0.149 C 
BRANCH  91  92
ATOM     92  C   ILE A  10      45.585  12.304   2.206  0.00  0.00    +0.241 C 
ATOM     93  O   ILE A  10      45.951  12.898   3.225  0.00  0.00    -0.273 OA
ATOM     94  N   VAL A  11      46.408  12.057   1.196  0.00  0.00    -0.297 N 
ATOM     95  H   VAL A  11      46.074  11.500   0.384  0.00  0.00    +0.150 HD
BRANCH  94  96
ATOM     96  CA  VAL A  11      47.791  12.565   1.214  0.00  0.00    +0.149 C 
BRANCH  96  97
ATOM     97  C   VAL A  11      47.804  14.110   1.328  0.00  0.00    +0.241 C 
ATOM     98  O   VAL A  11      48.533  14.654   2.141  0.00  0.00    -0.273 OA
ATOM     99  N   SER A  12      46.959  14.792   0.564  0.00  0.00    -0.295 N 
ATOM    100  H   SER A  12      46.341  14.287  -0.103  0.00  0.00    +0.150 HD
BRANCH  99 101
ATOM    101  CA  SER A  12      46.892  16.250   0.655  0.00  0.00    +0.178 C 
BRANCH 101 102
ATOM    102  C   SER A  12      46.473  16.714   2.064  0.00  0.00    +0.243 C 
ATOM    103  O   SER A  12      47.134  17.579   2.649  0.00  0.00    -0.273 OA
ATOM    104  N   VAL A  13      45.422  16.111   2.626  0.00  0.00    -0.297 N 
ATOM    105  H   VAL A  13      44.914  15.371   2.101  0.00  0.00    +0.150 HD
BRANCH 104 106
ATOM    106  CA  VAL A  13      44.977  16.476   3.964  0.00  0.00    +0.149 C 
BRANCH 106 107
ATOM    107  C   VAL A  13      46.099  16.293   4.981  0.00  0.00    +0.241 C 
ATOM    108  O   VAL A  13      46.305  17.177   5.808  0.00  0.00    -0.273 OA
ATOM    109  N   GLN A  14      46.853  15.181   4.907  0.00  0.00    -0.297 N 
ATOM    110  H   GLN A  14      46.625  14.473   4.180  0.00  0.00    +0.150 HD
BRANCH 109 111
ATOM    111  CA  GLN A  14      47.990  14.923   5.813  0.00  0.00    +0.149 C 
BRANCH 111 112
ATOM    112  C   GLN A  14      49.053  16.011   5.718  0.00  0.00    +0.241 C 
ATOM    113  O   GLN A  14      49.535  16.483   6.736  0.00  0.00    -0.273 OA
ATOM    114  N   GLU A  15      49.350  16.441   4.493  0.00  0.00    -0.297 N 
ATOM    115  H   GLU A  15      48.901  15.971   3.681  0.00  0.00    +0.150 HD
BRANCH 114 116
ATOM    116  CA  GLU A  15      50.273  17.537   4.234  0.00  0.00    +0.149 C 
BRANCH 116 117
ATOM    117  C   GLU A  15      49.742  18.875   4.770  0.00  0.00    +0.241 C 
ATOM    118  O   GLU A  15      50.500  19.657   5.290  0.00  0.00    -0.273 OA
ATOM    119  N   ILE A  16      48.450  19.126   4.619  0.00  0.00    -0.298 N 
ATOM    120  H   ILE A  16      47.863  18.436   4.109  0.00  0.00    +0.150 HD
BRANCH 119 121
ATOM    121  CA  ILE A  16      47.817  20.339   5.143  0.00  0.00    +0.137 C 
BRANCH 121 122
ATOM    122  C   ILE A  16      47.986  20.434   6.668  0.00  0.00    +0.227 C 
ATOM    123  O   ILE A  16      48.397  21.441   7.194  0.00  0.00    -0.286 OA
ENDBRANCH 121 122
BRANCH 121 124
ATOM    124  CB  ILE A  16      46.348  20.438   4.701  0.00  0.00    +0.026 C 
ATOM    125  CG2 ILE A  16      45.684  21.659   5.347  0.00  0.00    +0.002 C 
BRANCH 124 126
ATOM    126  CG1 ILE A  16      46.283  20.603   3.156  0.00  0.00    +0.002 C 
ATOM    127  CD1 ILE A  16      44.940  20.353   2.541  0.00  0.00    +0.000 C 
ENDBRANCH 124 126
ENDBRANCH 121 124
ENDBRANCH 119 121
ENDBRANCH 116 117
BRANCH 116 128
ATOM    128  CB  GLU A  15      50.532  17.660   2.716  0.00  0.00    +0.041 C 
BRANCH 128 129
ATOM    129  CG  GLU A  15      51.233  16.460   2.126  0.00  0.00    +0.116 C 
BRANCH 129 130
ATOM    130  CD  GLU A  15      51.686  16.646   0.653  0.00  0.00    +0.365 C 
ATOM    131  OE2 GLU A  15      52.613  15.868   0.284  0.00  0.00    -0.246 OA
ATOM    132  OE1 GLU A  15      51.143  17.523  -0.112  0.00  0.00    -0.246 OA
ENDBRANCH 129 130
ENDBRANCH 128 129
ENDBRANCH 116 128
ENDBRANCH 114 116
ENDBRANCH 111 112
BRANCH 111 133
ATOM    133  CB  GLN A  14      48.608  13.510   5.571  0.00  0.00    +0.039 C 
BRANCH 133 134
ATOM    134  CG  GLN A  14      47.609  12.386   5.895  0.00  0.00    +0.087 C 
BRANCH 134 135
ATOM    135  CD  GLN A  14      48.112  10.975   5.551  0.00  0.00    +0.219 C 
ATOM    136  NE2 GLN A  14      47.540   9.988   6.216  0.00  0.00    -0.329 N 
ATOM    137 HE21 GLN A  14      46.818  10.195   6.935  0.00  0.00    +0.145 HD
ATOM    138 HE22 GLN A  14      47.811   9.003   6.020  0.00  0.00    +0.145 HD
ATOM    139  OE1 GLN A  14      48.978  10.784   4.683  0.00  0.00    -0.275 OA
ENDBRANCH 134 135
ENDBRANCH 133 134
ENDBRANCH 111 133
ENDBRANCH 109 111
ENDBRANCH 106 107
BRANCH 106 140
ATOM    140  CB  VAL A  13      43.673  15.776   4.399  0.00  0.00    +0.027 C 
ATOM    141  CG2 VAL A  13      43.290  16.140   5.853  0.00  0.00    +0.002 C 
ATOM    142  CG1 VAL A  13      42.555  16.131   3.477  0.00  0.00    +0.002 C 
ENDBRANCH 106 140
ENDBRANCH 104 106
ENDBRANCH 101 102
BRANCH 101 143
ATOM    143  CB  SER A  12      45.933  16.829  -0.384  0.00  0.00    +0.166 C 
BRANCH 143 144
ATOM    144  OG  SER A  12      45.832  18.242  -0.257  0.00  0.00    -0.380 OA
ATOM    145  H   SER A  12      46.725  18.649  -0.388  0.00  0.00    +0.211 HD
ENDBRANCH 143 144
ENDBRANCH 101 143
ENDBRANCH  99 101
ENDBRANCH  96  97
BRANCH  96 146
ATOM    146  CB  VAL A  11      48.601  12.130  -0.031  0.00  0.00    +0.027 C 
ATOM    147  CG2 VAL A  11      50.037  12.759  -0.024  0.00  0.00    +0.002 C 
ATOM    148  CG1 VAL A  11      48.665  10.610  -0.111  0.00  0.00    +0.002 C 
ENDBRANCH  96 146
ENDBRANCH  94  96
ENDBRANCH  91  92
BRANCH  91 149
ATOM    149  CB  ILE A  10      44.047  10.335   2.338  0.00  0.00    +0.027 C 
ATOM    150  CG2 ILE A  10      44.861   9.970   3.586  0.00  0.00    +0.002 C 
BRANCH 149 151
ATOM    151  CG1 ILE A  10      42.584   9.908   2.527  0.00  0.00    +0.002 C 
ATOM    152  CD1 ILE A  10      42.405   8.408   2.554  0.00  0.00    +0.000 C 
ENDBRANCH 149 151
ENDBRANCH  91 149
ENDBRANCH  89  91
ENDBRANCH  85  87
ENDBRANCH  83  85
ENDBRANCH  80  81
BRANCH  80 153
ATOM    153  CB  LEU A   8      45.489  11.716  -4.546  0.00  0.00    +0.029 C 
BRANCH 153 154
ATOM    154  CG  LEU A   8      46.168  10.883  -5.625  0.00  0.00    +0.002 C 
ATOM    155  CD2 LEU A   8      47.663  10.957  -5.430  0.00  0.00    +0.000 C 
ATOM    156  CD1 LEU A   8      45.740  11.353  -7.007  0.00  0.00    +0.000 C 
ENDBRANCH 153 154
ENDBRANCH  80 153
ENDBRANCH   3  80
TORSDOF 63
REMARK  Name = ../refined-set-2016/3ipq/3ipq_pocket.pdb
REMARK  294 active torsions:
REMARK  status: ('A' for Active; 'I' for Inactive)
REMARK    1  A    between atoms: _1  and  _3
REMARK    2  A    between atoms: _3  and  _4
REMARK    3  A    between atoms: _3  and  _6
REMARK    4  A    between atoms: _6  and  _7
REMARK    5  A    between atoms: _7  and  _8
REMARK    6  A    between atoms: _13  and  _15
REMARK    7  A    between atoms: _15  and  _16
REMARK    8  A    between atoms: _15  and  _18
REMARK    9  A    between atoms: _18  and  _19
REMARK   10  A    between atoms: _19  and  _20
REMARK   11  A    between atoms: _20  and  _21
REMARK   12  A    between atoms: _30  and  _32
REMARK   13  A    between atoms: _32  and  _33
REMARK   14  A    between atoms: _32  and  _35
REMARK   15  A    between atoms: _35  and  _36
REMARK   16  A    between atoms: _42  and  _44
REMARK   17  A    between atoms: _44  and  _45
REMARK   18  A    between atoms: _48  and  _50
REMARK   19  A    between atoms: _50  and  _51
REMARK   20  A    between atoms: _50  and  _53
REMARK   21  A    between atoms: _53  and  _54
REMARK   22  A    between atoms: _59  and  _61
REMARK   23  A    between atoms: _61  and  _62
REMARK   24  A    between atoms: _61  and  _64
REMARK   25  A    between atoms: _64  and  _65
REMARK   26  A    between atoms: _71  and  _73
REMARK   27  A    between atoms: _73  and  _74
REMARK   28  A    between atoms: _73  and  _76
REMARK   29  A    between atoms: _76  and  _77
REMARK   30  A    between atoms: _80  and  _82
REMARK   31  A    between atoms: _82  and  _83
REMARK   32  A    between atoms: _82  and  _85
REMARK   33  A    between atoms: _85  and  _86
REMARK   34  A    between atoms: _86  and  _87
REMARK   35  A    between atoms: _90  and  _92
REMARK   36  A    between atoms: _92  and  _93
REMARK   37  A    between atoms: _92  and  _95
REMARK   38  A    between atoms: _95  and  _96
REMARK   39  A    between atoms: _99  and  _101
REMARK   40  A    between atoms: _101  and  _102
REMARK   41  A    between atoms: _105  and  _107
REMARK   42  A    between atoms: _107  and  _108
REMARK   43  A    between atoms: _107  and  _110
REMARK   44  A    between atoms: _110  and  _111
REMARK   45  A    between atoms: _114  and  _116
REMARK   46  A    between atoms: _116  and  _117
REMARK   47  A    between atoms: _116  and  _119
REMARK   48  A    between atoms: _122  and  _124
REMARK   49  A    between atoms: _124  and  _125
REMARK   50  A    between atoms: _124  and  _127
REMARK   51  A    between atoms: _127  and  _128
REMARK   52  A    between atoms: _130  and  _132
REMARK   53  A    between atoms: _132  and  _133
REMARK   54  A    between atoms: _132  and  _135
REMARK   55  A    between atoms: _138  and  _140
REMARK   56  A    between atoms: _140  and  _141
REMARK   57  A    between atoms: _140  and  _143
REMARK   58  A    between atoms: _143  and  _144
REMARK   59  A    between atoms: _144  and  _145
REMARK   60  A    between atoms: _150  and  _152
REMARK   61  A    between atoms: _152  and  _153
REMARK   62  A    between atoms: _152  and  _155
REMARK   63  A    between atoms: _155  and  _156
REMARK   64  A    between atoms: _156  and  _157
REMARK   65  A    between atoms: _160  and  _162
REMARK   66  A    between atoms: _162  and  _163
REMARK   67  A    between atoms: _162  and  _165
REMARK   68  A    between atoms: _165  and  _166
REMARK   69  A    between atoms: _169  and  _171
REMARK   70  A    between atoms: _171  and  _172
REMARK   71  A    between atoms: _175  and  _177
REMARK   72  A    between atoms: _177  and  _178
REMARK   73  A    between atoms: _177  and  _180
REMARK   74  A    between atoms: _180  and  _181
REMARK   75  A    between atoms: _184  and  _186
REMARK   76  A    between atoms: _186  and  _187
REMARK   77  A    between atoms: _186  and  _189
REMARK   78  A    between atoms: _189  and  _190
REMARK   79  A    between atoms: _190  and  _191
REMARK   80  A    between atoms: _194  and  _196
REMARK   81  A    between atoms: _196  and  _197
REMARK   82  A    between atoms: _196  and  _199
REMARK   83  A    between atoms: _202  and  _204
REMARK   84  A    between atoms: _204  and  _205
REMARK   85  A    between atoms: _204  and  _207
REMARK   86  A    between atoms: _207  and  _208
REMARK   87  A    between atoms: _208  and  _209
REMARK   88  A    between atoms: _211  and  _213
REMARK   89  A    between atoms: _213  and  _214
REMARK   90  A    between atoms: _213  and  _216
REMARK   91  A    between atoms: _216  and  _217
REMARK   92  A    between atoms: _220  and  _222
REMARK   93  A    between atoms: _222  and  _223
REMARK   94  A    between atoms: _222  and  _225
REMARK   95  A    between atoms: _225  and  _226
REMARK   96  A    between atoms: _229  and  _231
REMARK   97  A    between atoms: _231  and  _232
REMARK   98  A    between atoms: _231  and  _234
REMARK   99  A    between atoms: _234  and  _235
REMARK  100  A    between atoms: _235  and  _236
REMARK  101  A    between atoms: _239  and  _241
REMARK  102  A    between atoms: _241  and  _242
REMARK  103  A    between atoms: _241  and  _244
REMARK  104  A    between atoms: _244  and  _245
REMARK  105  A    between atoms: _248  and  _250
REMARK  106  A    between atoms: _250  and  _251
REMARK  107  A    between atoms: _250  and  _253
REMARK  108  A    between atoms: _253  and  _254
REMARK  109  A    between atoms: _256  and  _258
REMARK  110  A    between atoms: _258  and  _259
REMARK  111  A    between atoms: _258  and  _261
REMARK  112  A    between atoms: _261  and  _262
REMARK  113  A    between atoms: _262  and  _263
REMARK  114  A    between atoms: _263  and  _264
REMARK  115  A    between atoms: _273  and  _275
REMARK  116  A    between atoms: _275  and  _276
REMARK  117  A    between atoms: _275  and  _278
REMARK  118  A    between atoms: _278  and  _279
REMARK  119  A    between atoms: _279  and  _280
REMARK  120  A    between atoms: _280  and  _281
REMARK  121  A    between atoms: _290  and  _292
REMARK  122  A    between atoms: _292  and  _293
REMARK  123  A    between atoms: _292  and  _295
REMARK  124  A    between atoms: _295  and  _296
REMARK  125  A    between atoms: _299  and  _301
REMARK  126  A    between atoms: _301  and  _302
REMARK  127  A    between atoms: _301  and  _304
REMARK  128  A    between atoms: _304  and  _305
REMARK  129  A    between atoms: _308  and  _310
REMARK  130  A    between atoms: _310  and  _311
REMARK  131  A    between atoms: _310  and  _313
REMARK  132  A    between atoms: _313  and  _314
REMARK  133  A    between atoms: _320  and  _322
REMARK  134  A    between atoms: _322  and  _323
REMARK  135  A    between atoms: _322  and  _325
REMARK  136  A    between atoms: _325  and  _326
REMARK  137  A    between atoms: _329  and  _331
REMARK  138  A    between atoms: _331  and  _332
REMARK  139  A    between atoms: _331  and  _334
REMARK  140  A    between atoms: _334  and  _335
REMARK  141  A    between atoms: _335  and  _336
REMARK  142  A    between atoms: _336  and  _337
REMARK  143  A    between atoms: _337  and  _338
REMARK  144  A    between atoms: _342  and  _344
REMARK  145  A    between atoms: _344  and  _345
REMARK  146  A    between atoms: _344  and  _347
REMARK  147  A    between atoms: _347  and  _348
REMARK  148  A    between atoms: _351  and  _353
REMARK  149  A    between atoms: _353  and  _354
REMARK  150  A    between atoms: _353  and  _356
REMARK  151  A    between atoms: _356  and  _357
REMARK  152  A    between atoms: _363  and  _365
REMARK  153  A    between atoms: _365  and  _366
REMARK  154  A    between atoms: _365  and  _368
REMARK  155  A    between atoms: _368  and  _369
REMARK  156  A    between atoms: _374  and  _375
REMARK  157  A    between atoms: _377  and  _379
REMARK  158  A    between atoms: _379  and  _380
REMARK  159  A    between atoms: _379  and  _382
REMARK  160  A    between atoms: _382  and  _383
REMARK  161  A    between atoms: _388  and  _390
REMARK  162  A    between atoms: _390  and  _391
REMARK  163  A    between atoms: _390  and  _393
REMARK  164  A    between atoms: _393  and  _394
REMARK  165  A    between atoms: _394  and  _395
REMARK  166  A    between atoms: _395  and  _396
REMARK  167  A    between atoms: _405  and  _407
REMARK  168  A    between atoms: _407  and  _408
REMARK  169  A    between atoms: _407  and  _410
REMARK  170  A    between atoms: _410  and  _411
REMARK  171  A    between atoms: _414  and  _416
REMARK  172  A    between atoms: _416  and  _417
REMARK  173  A    between atoms: _416  and  _419
REMARK  174  A    between atoms: _419  and  _420
REMARK  175  A    between atoms: _426  and  _428
REMARK  176  A    between atoms: _428  and  _429
REMARK  177  A    between atoms: _432  and  _434
REMARK  178  A    between atoms: _434  and  _435
REMARK  179  A    between atoms: _438  and  _440
REMARK  180  A    between atoms: _440  and  _441
REMARK  181  A    between atoms: _443  and  _445
REMARK  182  A    between atoms: _445  and  _446
REMARK  183  A    between atoms: _445  and  _448
REMARK  184  A    between atoms: _448  and  _449
REMARK  185  A    between atoms: _452  and  _454
REMARK  186  A    between atoms: _454  and  _455
REMARK  187  A    between atoms: _454  and  _457
REMARK  188  A    between atoms: _457  and  _458
REMARK  189  A    between atoms: _458  and  _459
REMARK  190  A    between atoms: _464  and  _466
REMARK  191  A    between atoms: _466  and  _467
REMARK  192  A    between atoms: _466  and  _469
REMARK  193  A    between atoms: _472  and  _474
REMARK  194  A    between atoms: _474  and  _475
REMARK  195  A    between atoms: _474  and  _477
REMARK  196  A    between atoms: _477  and  _478
REMARK  197  A    between atoms: _478  and  _479
REMARK  198  A    between atoms: _482  and  _484
REMARK  199  A    between atoms: _484  and  _485
REMARK  200  A    between atoms: _484  and  _487
REMARK  201  A    between atoms: _487  and  _488
REMARK  202  A    between atoms: _494  and  _496
REMARK  203  A    between atoms: _496  and  _497
REMARK  204  A    between atoms: _496  and  _499
REMARK  205  A    between atoms: _499  and  _500
REMARK  206  A    between atoms: _503  and  _505
REMARK  207  A    between atoms: _505  and  _506
REMARK  208  A    between atoms: _505  and  _508
REMARK  209  A    between atoms: _508  and  _509
REMARK  210  A    between atoms: _515  and  _516
REMARK  211  A    between atoms: _521  and  _523
REMARK  212  A    between atoms: _523  and  _524
REMARK  213  A    between atoms: _523  and  _526
REMARK  214  A    between atoms: _526  and  _527
REMARK  215  A    between atoms: _530  and  _532
REMARK  216  A    between atoms: _532  and  _533
REMARK  217  A    between atoms: _532  and  _535
REMARK  218  A    between atoms: _535  and  _536
REMARK  219  A    between atoms: _542  and  _544
REMARK  220  A    between atoms: _544  and  _545
REMARK  221  A    between atoms: _544  and  _547
REMARK  222  A    between atoms: _547  and  _548
REMARK  223  A    between atoms: _548  and  _549
REMARK  224  A    between atoms: _552  and  _554
REMARK  225  A    between atoms: _554  and  _555
REMARK  226  A    between atoms: _554  and  _557
REMARK  227  A    between atoms: _557  and  _558
REMARK  228  A    between atoms: _560  and  _562
REMARK  229  A    between atoms: _562  and  _563
REMARK  230  A    between atoms: _562  and  _565
REMARK  231  A    between atoms: _565  and  _566
REMARK  232  A    between atoms: _569  and  _571
REMARK  233  A    between atoms: _571  and  _572
REMARK  234  A    between atoms: _571  and  _574
REMARK  235  A    between atoms: _577  and  _579
REMARK  236  A    between atoms: _579  and  _580
REMARK  237  A    between atoms: _579  and  _582
REMARK  238  A    between atoms: _582  and  _583
REMARK  239  A    between atoms: _588  and  _590
REMARK  240  A    between atoms: _590  and  _591
REMARK  241  A    between atoms: _590  and  _593
REMARK  242  A    between atoms: _593  and  _594
REMARK  243  A    between atoms: _596  and  _598
REMARK  244  A    between atoms: _598  and  _599
REMARK  245  A    between atoms: _598  and  _601
REMARK  246  A    between atoms: _601  and  _602
REMARK  247  A    between atoms: _602  and  _603
REMARK  248  A    between atoms: _606  and  _608
REMARK  249  A    between atoms: _608  and  _609
REMARK  250  A    between atoms: _608  and  _611
REMARK  251  A    between atoms: _611  and  _612
REMARK  252  A    between atoms: _612  and  _613
REMARK  253  A    between atoms: _618  and  _620
REMARK  254  A    between atoms: _620  and  _621
REMARK  255  A    between atoms: _620  and  _623
REMARK  256  A    between atoms: _626  and  _628
REMARK  257  A    between atoms: _628  and  _629
REMARK  258  A    between atoms: _628  and  _631
REMARK  259  A    between atoms: _631  and  _632
REMARK  260  A    between atoms: _638  and  _640
REMARK  261  A    between atoms: _640  and  _641
REMARK  262  A    between atoms: _640  and  _643
REMARK  263  A    between atoms: _643  and  _644
REMARK  264  A    between atoms: _647  and  _649
REMARK  265  A    between atoms: _649  and  _650
REMARK  266  A    between atoms: _649  and  _652
REMARK  267  A    between atoms: _652  and  _653
REMARK  268  A    between atoms: _653  and  _654
REMARK  269  A    between atoms: _654  and  _655
REMARK  270  A    between atoms: _655  and  _656
REMARK  271  A    between atoms: _660  and  _662
REMARK  272  A    between atoms: _662  and  _663
REMARK  273  A    between atoms: _662  and  _665
REMARK  274  A    between atoms: _665  and  _666
REMARK  275  A    between atoms: _666  and  _667
REMARK  276  A    between atoms: _667  and  _668
REMARK  277  A    between atoms: _668  and  _669
REMARK  278  A    between atoms: _673  and  _675
REMARK  279  A    between atoms: _675  and  _676
REMARK  280  A    between atoms: _675  and  _678
REMARK  281  A    between atoms: _678  and  _679
REMARK  282  A    between atoms: _683  and  _684
REMARK  283  A    between atoms: _689  and  _691
REMARK  284  A    between atoms: _691  and  _692
REMARK  285  A    between atoms: _691  and  _694
REMARK  286  A    between atoms: _694  and  _695
REMARK  287  A    between atoms: _698  and  _700
REMARK  288  A    between atoms: _700  and  _701
REMARK  289  A    between atoms: _700  and  _703
REMARK  290  A    between atoms: _703  and  _704
REMARK  291  A    between atoms: _714  and  _716
REMARK  292  A    between atoms: _716  and  _717
REMARK  293  A    between atoms: _716  and  _719
REMARK  294  A    between atoms: _719  and  _720
REMARK                            x       y       z     vdW  Elec       q    Type
REMARK                         _______ _______ _______ _____ _____    ______ ____
ROOT
ATOM      1  C   LEU A   7      46.018  25.335  -4.197  0.00  0.00    +0.241 C 
ATOM      2  N   GLU A   8      46.274  24.242  -3.493  0.00  0.00    -0.297 N 
ATOM      3  H   GLU A   8      45.724  24.062  -2.629  0.00  0.00    +0.150 HD
ATOM      4  O   LEU A   7      46.664  25.651  -5.219  0.00  0.00    -0.273 OA
ENDROOT
BRANCH   2   5
ATOM      5  CA  GLU A   8      47.304  23.278  -3.889  0.00  0.00    +0.149 C 
BRANCH   5   6
ATOM      6  C   GLU A   8      47.069  22.682  -5.302  0.00  0.00    +0.241 C 
ATOM      7  N   THR A   9      45.829  22.382  -5.622  0.00  0.00    -0.295 N 
ATOM      8  H   THR A   9      45.093  22.487  -4.895  0.00  0.00    +0.150 HD
ATOM      9  O   GLU A   8      47.999  22.514  -6.077  0.00  0.00    -0.273 OA
BRANCH   7  10
ATOM     10  CA  THR A   9      45.432  21.908  -6.948  0.00  0.00    +0.176 C 
BRANCH  10  11
ATOM     11  C   THR A   9      45.666  22.961  -8.059  0.00  0.00    +0.243 C 
ATOM     12  N   SER A  10      45.318  24.215  -7.780  0.00  0.00    -0.295 N 
ATOM     13  H   SER A  10      44.876  24.422  -6.862  0.00  0.00    +0.150 HD
ATOM     14  O   THR A   9      46.161  22.632  -9.142  0.00  0.00    -0.273 OA
BRANCH  12  15
ATOM     15  CA  SER A  10      45.536  25.308  -8.720  0.00  0.00    +0.178 C 
BRANCH  15  16
ATOM     16  C   SER A  10      47.004  25.448  -9.048  0.00  0.00    +0.243 C 
ATOM     17  N   ARG A  11      47.844  25.161  -8.063  0.00  0.00    -0.297 N 
ATOM     18  H   ARG A  11      47.451  24.809  -7.167  0.00  0.00    +0.150 HD
ATOM     19  O   SER A  10      47.354  25.744 -10.181  0.00  0.00    -0.273 OA
BRANCH  17  20
ATOM     20  CA  ARG A  11      49.275  25.311  -8.169  0.00  0.00    +0.149 C 
BRANCH  20  21
ATOM     21  C   ARG A  11      49.871  24.206  -9.051  0.00  0.00    +0.241 C 
ATOM     22  N   ARG A  12      49.141  23.098  -9.167  0.00  0.00    -0.298 N 
ATOM     23  H   ARG A  12      48.216  23.067  -8.692  0.00  0.00    +0.150 HD
ATOM     24  O   ARG A  11      50.926  24.400  -9.641  0.00  0.00    -0.273 OA
BRANCH  22  25
ATOM     25  CA  ARG A  12      49.565  21.932  -9.920  0.00  0.00    +0.137 C 
BRANCH  25  26
ATOM     26  C   ARG A  12      48.967  21.853 -11.327  0.00  0.00    +0.227 C 
ATOM     27  O   ARG A  12      49.079  20.826 -12.007  0.00  0.00    -0.286 OA
ENDBRANCH  25  26
BRANCH  25  28
ATOM     28  CB  ARG A  12      49.176  20.701  -9.112  0.00  0.00    +0.031 C 
BRANCH  28  29
ATOM     29  CG  ARG A  12      50.119  20.506  -7.933  0.00  0.00    +0.045 C 
BRANCH  29  30
ATOM     30  CD  ARG A  12      49.499  19.586  -6.907  0.00  0.00    +0.174 C 
BRANCH  30  31
ATOM     31  NE  ARG A  12      50.367  19.231  -5.801  0.00  0.00    -0.265 N 
ATOM     32  CZ  ARG A  12      50.758  20.058  -4.844  0.00  0.00    +0.342 C 
ATOM     33  NH2 ARG A  12      51.515  19.604  -3.864  0.00  0.00    -0.292 N 
ATOM     34 HH21 ARG A  12      51.827  20.246  -3.108  0.00  0.00    +0.255 HD
ATOM     35 HH22 ARG A  12      51.800  18.604  -3.847  0.00  0.00    +0.255 HD
ATOM     36  NH1 ARG A  12      50.420  21.330  -4.849  0.00  0.00    -0.292 N 
ATOM     37 HH11 ARG A  12      50.742  21.957  -4.084  0.00  0.00    +0.255 HD
ATOM     38 HH12 ARG A  12      49.831  21.709  -5.618  0.00  0.00    +0.255 HD
ATOM     39  HE  ARG A  12      50.709  18.250  -5.756  0.00  0.00    +0.259 HD
ENDBRANCH  30  31
ENDBRANCH  29  30
ENDBRANCH  28  29
ENDBRANCH  25  28
ENDBRANCH  22  25
ENDBRANCH  20  21
BRANCH  20  40
ATOM     40  CB  ARG A  11      49.842  25.282  -6.757  0.00  0.00    +0.033 C 
BRANCH  40  41
ATOM     41  CG  ARG A  11      51.291  25.131  -6.570  0.00  0.00    +0.045 C 
BRANCH  41  42
ATOM     42  CD  ARG A  11      51.481  24.939  -5.078  0.00  0.00    +0.174 C 
BRANCH  42  43
ATOM     43  NE  ARG A  11      52.680  25.589  -4.582  0.00  0.00    -0.265 N 
ATOM     44  CZ  ARG A  11      52.927  25.799  -3.294  0.00  0.00    +0.342 C 
ATOM     45  NH2 ARG A  11      52.086  25.395  -2.334  0.00  0.00    -0.292 N 
ATOM     46 HH21 ARG A  11      52.311  25.576  -1.335  0.00  0.00    +0.255 HD
ATOM     47 HH22 ARG A  11      51.207  24.900  -2.587  0.00  0.00    +0.255 HD
ATOM     48  NH1 ARG A  11      54.064  26.370  -2.967  0.00  0.00    -0.292 N 
ATOM     49 HH11 ARG A  11      54.288  26.548  -1.967  0.00  0.00    +0.255 HD
ATOM     50 HH12 ARG A  11      54.740  26.644  -3.708  0.00  0.00    +0.255 HD
ATOM     51  HE  ARG A  11      53.386  25.909  -5.275  0.00  0.00    +0.259 HD
ENDBRANCH  42  43
ENDBRANCH  41  42
ENDBRANCH  40  41
ENDBRANCH  20  40
ENDBRANCH  17  20
ENDBRANCH  15  16
BRANCH  15  52
ATOM     52  CB  SER A  10      44.952  26.630  -8.225  0.00  0.00    +0.166 C 
BRANCH  52  53
ATOM     53  OG  SER A  10      45.712  27.218  -7.179  0.00  0.00    -0.380 OA
ATOM     54  H   SER A  10      45.746  26.597  -6.408  0.00  0.00    +0.211 HD
ENDBRANCH  52  53
ENDBRANCH  15  52
ENDBRANCH  12  15
ENDBRANCH  10  11
BRANCH  10  55
ATOM     55  CB  THR A   9      43.934  21.441  -6.915  0.00  0.00    +0.137 C 
ATOM     56  CG2 THR A   9      43.349  21.103  -8.321  0.00  0.00    +0.034 C 
BRANCH  55  57
ATOM     57  OG1 THR A   9      43.806  20.299  -6.060  0.00  0.00    -0.382 OA
ATOM     58  HG1 THR A   9      44.097  20.539  -5.145  0.00  0.00    +0.210 HD
ENDBRANCH  55  57
ENDBRANCH  10  55
ENDBRANCH   7  10
ENDBRANCH   5   6
BRANCH   5  59
ATOM     59  CB  GLU A   8      47.394  22.142  -2.868  0.00  0.00    +0.041 C 
BRANCH  59  60
ATOM     60  CG  GLU A   8      47.904  22.529  -1.525  0.00  0.00    +0.116 C 
BRANCH  60  61
ATOM     61  CD  GLU A   8      49.386  22.965  -1.517  0.00  0.00    +0.365 C 
ATOM     62  OE2 GLU A   8      49.954  23.075  -0.422  0.00  0.00    -0.246 OA
ATOM     63  OE1 GLU A   8      50.007  23.182  -2.585  0.00  0.00    -0.246 OA
ENDBRANCH  60  61
ENDBRANCH  59  60
ENDBRANCH   5  59
ENDBRANCH   2   5
BRANCH   1  64
ATOM     64  CA  LEU A   7      44.865  26.205  -3.687  0.00  0.00    +0.149 C 
BRANCH  64  66
ATOM     65  C   LEU A   6      43.068  24.687  -4.396  0.00  0.00    +0.241 C 
ATOM     66  N   LEU A   7      43.665  25.396  -3.430  0.00  0.00    -0.297 N 
ATOM     67  H   LEU A   7      43.268  25.374  -2.469  0.00  0.00    +0.150 HD
ATOM     68  O   LEU A   6      43.461  24.715  -5.563  0.00  0.00    -0.273 OA
BRANCH  65  69
ATOM     69  CA  LEU A   6      41.893  23.781  -3.997  0.00  0.00    +0.149 C 
BRANCH  69  71
ATOM     70  C   MET A   5      43.130  22.144  -2.696  0.00  0.00    +0.241 C 
ATOM     71  N   LEU A   6      42.184  23.065  -2.775  0.00  0.00    -0.297 N 
ATOM     72  H   LEU A   6      41.627  23.283  -1.924  0.00  0.00    +0.150 HD
ATOM     73  O   MET A   5      43.821  21.831  -3.659  0.00  0.00    -0.273 OA
BRANCH  70  74
ATOM     74  CA  MET A   5      43.355  21.523  -1.304  0.00  0.00    +0.149 C 
BRANCH  74  76
ATOM     75  C   VAL A   4      44.083  23.593  -0.193  0.00  0.00    +0.241 C 
ATOM     76  N   MET A   5      43.249  22.552  -0.237  0.00  0.00    -0.297 N 
ATOM     77  H   MET A   5      42.511  22.459   0.489  0.00  0.00    +0.150 HD
ATOM     78  O   VAL A   4      44.969  23.772  -1.044  0.00  0.00    -0.273 OA
BRANCH  75  79
ATOM     79  CA  VAL A   4      43.834  24.652   0.925  0.00  0.00    +0.149 C 
BRANCH  79  81
ATOM     80  C   GLU A   3      41.633  25.382   0.108  0.00  0.00    +0.241 C 
ATOM     81  N   VAL A   4      42.380  24.847   1.080  0.00  0.00    -0.297 N 
ATOM     82  H   VAL A   4      41.923  24.561   1.969  0.00  0.00    +0.150 HD
ATOM     83  O   GLU A   3      42.103  25.697  -1.003  0.00  0.00    -0.273 OA
BRANCH  80  84
ATOM     84  CA  GLU A   3      40.143  25.511   0.381  0.00  0.00    +0.149 C 
BRANCH  84  86
ATOM     85  C   ILE A   2      39.607  23.114   0.324  0.00  0.00    +0.241 C 
ATOM     86  N   GLU A   3      39.628  24.266   1.000  0.00  0.00    -0.297 N 
ATOM     87  H   GLU A   3      39.277  24.290   1.979  0.00  0.00    +0.150 HD
ATOM     88  O   ILE A   2      40.068  23.000  -0.822  0.00  0.00    -0.273 OA
BRANCH  85  89
ATOM     89  CA  ILE A   2      39.026  21.906   1.080  0.00  0.00    +0.148 C 
BRANCH  89  91
ATOM     90  C   ALA A   1      40.705  21.755   2.841  0.00  0.00    +0.238 C 
ATOM     91  N   ILE A   2      39.429  21.911   2.503  0.00  0.00    -0.297 N 
ATOM     92  H   ILE A   2      38.710  22.037   3.244  0.00  0.00    +0.150 HD
ATOM     93  O   ALA A   1      41.579  21.727   2.008  0.00  0.00    -0.274 OA
BRANCH  90  94
ATOM     94  CA  ALA A   1      41.090  21.741   4.304  0.00  0.00    +0.145 C 
ATOM     95  CB  ALA A   1      40.856  20.373   4.967  0.00  0.00    +0.028 C 
BRANCH  94  96
ATOM     96  N   ALA A   1      40.466  22.805   5.065  0.00  0.00    -0.238 NA
ATOM     97  H   ALA A   1      39.952  22.578   5.940  0.00  0.00    +0.142 HD
ENDBRANCH  94  96
ENDBRANCH  90  94
ENDBRANCH  89  91
BRANCH  89  98
ATOM     98  CB  ILE A   2      37.483  21.803   0.896  0.00  0.00    +0.027 C 
ATOM     99  CG2 ILE A   2      36.724  23.061   1.402  0.00  0.00    +0.002 C 
BRANCH  98 100
ATOM    100  CG1 ILE A   2      37.159  21.498  -0.575  0.00  0.00    +0.002 C 
ATOM    101  CD1 ILE A   2      37.682  20.119  -1.066  0.00  0.00    +0.000 C 
ENDBRANCH  98 100
ENDBRANCH  89  98
ENDBRANCH  85  89
ENDBRANCH  84  86
BRANCH  84 102
ATOM    102  CB  GLU A   3      39.838  26.708   1.293  0.00  0.00    +0.041 C 
BRANCH 102 103
ATOM    103  CG  GLU A   3      38.411  26.952   1.388  0.00  0.00    +0.116 C 
BRANCH 103 104
ATOM    104  CD  GLU A   3      38.052  28.210   2.146  0.00  0.00    +0.365 C 
ATOM    105  OE2 GLU A   3      36.908  28.296   2.563  0.00  0.00    -0.246 OA
ATOM    106  OE1 GLU A   3      38.910  29.098   2.329  0.00  0.00    -0.246 OA
ENDBRANCH 103 104
ENDBRANCH 102 103
ENDBRANCH  84 102
ENDBRANCH  80  84
ENDBRANCH  79  81
BRANCH  79 107
ATOM    107  CB  VAL A   4      44.513  24.284   2.241  0.00  0.00    +0.027 C 
ATOM    108  CG2 VAL A   4      44.297  25.413   3.325  0.00  0.00    +0.002 C 
ATOM    109  CG1 VAL A   4      46.021  23.993   2.056  0.00  0.00    +0.002 C 
ENDBRANCH  79 107
ENDBRANCH  75  79
ENDBRANCH  74  76
BRANCH  74 110
ATOM    110  CB  MET A   5      42.357  20.401  -1.088  0.00  0.00    +0.041 C 
BRANCH 110 111
ATOM    111  CG  MET A   5      42.649  19.511   0.082  0.00  0.00    +0.060 C 
BRANCH 111 112
ATOM    112  SD  MET A   5      41.551  18.052   0.180  0.00  0.00    -0.139 S 
ATOM    113  CE  MET A   5      41.871  17.443  -1.451  0.00  0.00    +0.069 C 
ENDBRANCH 111 112
ENDBRANCH 110 111
ENDBRANCH  74 110
ENDBRANCH  70  74
ENDBRANCH  69  71
BRANCH  69 114
ATOM    114  CB  LEU A   6      40.577  24.541  -3.865  0.00  0.00    +0.029 C 
BRANCH 114 115
ATOM    115  CG  LEU A   6      39.307  23.702  -3.944  0.00  0.00    +0.002 C 
ATOM    116  CD2 LEU A   6      38.120  24.498  -3.420  0.00  0.00    +0.000 C 
ATOM    117  CD1 LEU A   6      39.112  23.224  -5.385  0.00  0.00    +0.000 C 
ENDBRANCH 114 115
ENDBRANCH  69 114
ENDBRANCH  65  69
ENDBRANCH  64  66
BRANCH  64 118
ATOM    118  CB  LEU A   7      45.284  27.005  -2.426  0.00  0.00    +0.029 C 
BRANCH 118 119
ATOM    119  CG  LEU A   7      44.469  28.267  -2.144  0.00  0.00    +0.002 C 
ATOM    120  CD2 LEU A   7      44.746  28.826  -0.706  0.00  0.00    +0.000 C 
ATOM    121  CD1 LEU A   7      44.787  29.335  -3.262  0.00  0.00    +0.000 C 
ENDBRANCH 118 119
ENDBRANCH  64 118
ENDBRANCH   1  64
TORSDOF 52
REMARK  Name = ../refined-set-2016/3ipq/3ipq_pocket.pdb
REMARK  294 active torsions:
REMARK  status: ('A' for Active; 'I' for Inactive)
REMARK    1  A    between atoms: _1  and  _3
REMARK    2  A    between atoms: _3  and  _4
REMARK    3  A    between atoms: _3  and  _6
REMARK    4  A    between atoms: _6  and  _7
REMARK    5  A    between atoms: _7  and  _8
REMARK    6  A    between atoms: _13  and  _15
REMARK    7  A    between atoms: _15  and  _16
REMARK    8  A    between atoms: _15  and  _18
REMARK    9  A    between atoms: _18  and  _19
REMARK   10  A    between atoms: _19  and  _20
REMARK   11  A    between atoms: _20  and  _21
REMARK   12  A    between atoms: _30  and  _32
REMARK   13  A    between atoms: _32  and  _33
REMARK   14  A    between atoms: _32  and  _35
REMARK   15  A    between atoms: _35  and  _36
REMARK   16  A    between atoms: _42  and  _44
REMARK   17  A    between atoms: _44  and  _45
REMARK   18  A    between atoms: _48  and  _50
REMARK   19  A    between atoms: _50  and  _51
REMARK   20  A    between atoms: _50  and  _53
REMARK   21  A    between atoms: _53  and  _54
REMARK   22  A    between atoms: _59  and  _61
REMARK   23  A    between atoms: _61  and  _62
REMARK   24  A    between atoms: _61  and  _64
REMARK   25  A    between atoms: _64  and  _65
REMARK   26  A    between atoms: _71  and  _73
REMARK   27  A    between atoms: _73  and  _74
REMARK   28  A    between atoms: _73  and  _76
REMARK   29  A    between atoms: _76  and  _77
REMARK   30  A    between atoms: _80  and  _82
REMARK   31  A    between atoms: _82  and  _83
REMARK   32  A    between atoms: _82  and  _85
REMARK   33  A    between atoms: _85  and  _86
REMARK   34  A    between atoms: _86  and  _87
REMARK   35  A    between atoms: _90  and  _92
REMARK   36  A    between atoms: _92  and  _93
REMARK   37  A    between atoms: _92  and  _95
REMARK   38  A    between atoms: _95  and  _96
REMARK   39  A    between atoms: _99  and  _101
REMARK   40  A    between atoms: _101  and  _102
REMARK   41  A    between atoms: _105  and  _107
REMARK   42  A    between atoms: _107  and  _108
REMARK   43  A    between atoms: _107  and  _110
REMARK   44  A    between atoms: _110  and  _111
REMARK   45  A    between atoms: _114  and  _116
REMARK   46  A    between atoms: _116  and  _117
REMARK   47  A    between atoms: _116  and  _119
REMARK   48  A    between atoms: _122  and  _124
REMARK   49  A    between atoms: _124  and  _125
REMARK   50  A    between atoms: _124  and  _127
REMARK   51  A    between atoms: _127  and  _128
REMARK   52  A    between atoms: _130  and  _132
REMARK   53  A    between atoms: _132  and  _133
REMARK   54  A    between atoms: _132  and  _135
REMARK   55  A    between atoms: _138  and  _140
REMARK   56  A    between atoms: _140  and  _141
REMARK   57  A    between atoms: _140  and  _143
REMARK   58  A    between atoms: _143  and  _144
REMARK   59  A    between atoms: _144  and  _145
REMARK   60  A    between atoms: _150  and  _152
REMARK   61  A    between atoms: _152  and  _153
REMARK   62  A    between atoms: _152  and  _155
REMARK   63  A    between atoms: _155  and  _156
REMARK   64  A    between atoms: _156  and  _157
REMARK   65  A    between atoms: _160  and  _162
REMARK   66  A    between atoms: _162  and  _163
REMARK   67  A    between atoms: _162  and  _165
REMARK   68  A    between atoms: _165  and  _166
REMARK   69  A    between atoms: _169  and  _171
REMARK   70  A    between atoms: _171  and  _172
REMARK   71  A    between atoms: _175  and  _177
REMARK   72  A    between atoms: _177  and  _178
REMARK   73  A    between atoms: _177  and  _180
REMARK   74  A    between atoms: _180  and  _181
REMARK   75  A    between atoms: _184  and  _186
REMARK   76  A    between atoms: _186  and  _187
REMARK   77  A    between atoms: _186  and  _189
REMARK   78  A    between atoms: _189  and  _190
REMARK   79  A    between atoms: _190  and  _191
REMARK   80  A    between atoms: _194  and  _196
REMARK   81  A    between atoms: _196  and  _197
REMARK   82  A    between atoms: _196  and  _199
REMARK   83  A    between atoms: _202  and  _204
REMARK   84  A    between atoms: _204  and  _205
REMARK   85  A    between atoms: _204  and  _207
REMARK   86  A    between atoms: _207  and  _208
REMARK   87  A    between atoms: _208  and  _209
REMARK   88  A    between atoms: _211  and  _213
REMARK   89  A    between atoms: _213  and  _214
REMARK   90  A    between atoms: _213  and  _216
REMARK   91  A    between atoms: _216  and  _217
REMARK   92  A    between atoms: _220  and  _222
REMARK   93  A    between atoms: _222  and  _223
REMARK   94  A    between atoms: _222  and  _225
REMARK   95  A    between atoms: _225  and  _226
REMARK   96  A    between atoms: _229  and  _231
REMARK   97  A    between atoms: _231  and  _232
REMARK   98  A    between atoms: _231  and  _234
REMARK   99  A    between atoms: _234  and  _235
REMARK  100  A    between atoms: _235  and  _236
REMARK  101  A    between atoms: _239  and  _241
REMARK  102  A    between atoms: _241  and  _242
REMARK  103  A    between atoms: _241  and  _244
REMARK  104  A    between atoms: _244  and  _245
REMARK  105  A    between atoms: _248  and  _250
REMARK  106  A    between atoms: _250  and  _251
REMARK  107  A    between atoms: _250  and  _253
REMARK  108  A    between atoms: _253  and  _254
REMARK  109  A    between atoms: _256  and  _258
REMARK  110  A    between atoms: _258  and  _259
REMARK  111  A    between atoms: _258  and  _261
REMARK  112  A    between atoms: _261  and  _262
REMARK  113  A    between atoms: _262  and  _263
REMARK  114  A    between atoms: _263  and  _264
REMARK  115  A    between atoms: _273  and  _275
REMARK  116  A    between atoms: _275  and  _276
REMARK  117  A    between atoms: _275  and  _278
REMARK  118  A    between atoms: _278  and  _279
REMARK  119  A    between atoms: _279  and  _280
REMARK  120  A    between atoms: _280  and  _281
REMARK  121  A    between atoms: _290  and  _292
REMARK  122  A    between atoms: _292  and  _293
REMARK  123  A    between atoms: _292  and  _295
REMARK  124  A    between atoms: _295  and  _296
REMARK  125  A    between atoms: _299  and  _301
REMARK  126  A    between atoms: _301  and  _302
REMARK  127  A    between atoms: _301  and  _304
REMARK  128  A    between atoms: _304  and  _305
REMARK  129  A    between atoms: _308  and  _310
REMARK  130  A    between atoms: _310  and  _311
REMARK  131  A    between atoms: _310  and  _313
REMARK  132  A    between atoms: _313  and  _314
REMARK  133  A    between atoms: _320  and  _322
REMARK  134  A    between atoms: _322  and  _323
REMARK  135  A    between atoms: _322  and  _325
REMARK  136  A    between atoms: _325  and  _326
REMARK  137  A    between atoms: _329  and  _331
REMARK  138  A    between atoms: _331  and  _332
REMARK  139  A    between atoms: _331  and  _334
REMARK  140  A    between atoms: _334  and  _335
REMARK  141  A    between atoms: _335  and  _336
REMARK  142  A    between atoms: _336  and  _337
REMARK  143  A    between atoms: _337  and  _338
REMARK  144  A    between atoms: _342  and  _344
REMARK  145  A    between atoms: _344  and  _345
REMARK  146  A    between atoms: _344  and  _347
REMARK  147  A    between atoms: _347  and  _348
REMARK  148  A    between atoms: _351  and  _353
REMARK  149  A    between atoms: _353  and  _354
REMARK  150  A    between atoms: _353  and  _356
REMARK  151  A    between atoms: _356  and  _357
REMARK  152  A    between atoms: _363  and  _365
REMARK  153  A    between atoms: _365  and  _366
REMARK  154  A    between atoms: _365  and  _368
REMARK  155  A    between atoms: _368  and  _369
REMARK  156  A    between atoms: _374  and  _375
REMARK  157  A    between atoms: _377  and  _379
REMARK  158  A    between atoms: _379  and  _380
REMARK  159  A    between atoms: _379  and  _382
REMARK  160  A    between atoms: _382  and  _383
REMARK  161  A    between atoms: _388  and  _390
REMARK  162  A    between atoms: _390  and  _391
REMARK  163  A    between atoms: _390  and  _393
REMARK  164  A    between atoms: _393  and  _394
REMARK  165  A    between atoms: _394  and  _395
REMARK  166  A    between atoms: _395  and  _396
REMARK  167  A    between atoms: _405  and  _407
REMARK  168  A    between atoms: _407  and  _408
REMARK  169  A    between atoms: _407  and  _410
REMARK  170  A    between atoms: _410  and  _411
REMARK  171  A    between atoms: _414  and  _416
REMARK  172  A    between atoms: _416  and  _417
REMARK  173  A    between atoms: _416  and  _419
REMARK  174  A    between atoms: _419  and  _420
REMARK  175  A    between atoms: _426  and  _428
REMARK  176  A    between atoms: _428  and  _429
REMARK  177  A    between atoms: _432  and  _434
REMARK  178  A    between atoms: _434  and  _435
REMARK  179  A    between atoms: _438  and  _440
REMARK  180  A    between atoms: _440  and  _441
REMARK  181  A    between atoms: _443  and  _445
REMARK  182  A    between atoms: _445  and  _446
REMARK  183  A    between atoms: _445  and  _448
REMARK  184  A    between atoms: _448  and  _449
REMARK  185  A    between atoms: _452  and  _454
REMARK  186  A    between atoms: _454  and  _455
REMARK  187  A    between atoms: _454  and  _457
REMARK  188  A    between atoms: _457  and  _458
REMARK  189  A    between atoms: _458  and  _459
REMARK  190  A    between atoms: _464  and  _466
REMARK  191  A    between atoms: _466  and  _467
REMARK  192  A    between atoms: _466  and  _469
REMARK  193  A    between atoms: _472  and  _474
REMARK  194  A    between atoms: _474  and  _475
REMARK  195  A    between atoms: _474  and  _477
REMARK  196  A    between atoms: _477  and  _478
REMARK  197  A    between atoms: _478  and  _479
REMARK  198  A    between atoms: _482  and  _484
REMARK  199  A    between atoms: _484  and  _485
REMARK  200  A    between atoms: _484  and  _487
REMARK  201  A    between atoms: _487  and  _488
REMARK  202  A    between atoms: _494  and  _496
REMARK  203  A    between atoms: _496  and  _497
REMARK  204  A    between atoms: _496  and  _499
REMARK  205  A    between atoms: _499  and  _500
REMARK  206  A    between atoms: _503  and  _505
REMARK  207  A    between atoms: _505  and  _506
REMARK  208  A    between atoms: _505  and  _508
REMARK  209  A    between atoms: _508  and  _509
REMARK  210  A    between atoms: _515  and  _516
REMARK  211  A    between atoms: _521  and  _523
REMARK  212  A    between atoms: _523  and  _524
REMARK  213  A    between atoms: _523  and  _526
REMARK  214  A    between atoms: _526  and  _527
REMARK  215  A    between atoms: _530  and  _532
REMARK  216  A    between atoms: _532  and  _533
REMARK  217  A    between atoms: _532  and  _535
REMARK  218  A    between atoms: _535  and  _536
REMARK  219  A    between atoms: _542  and  _544
REMARK  220  A    between atoms: _544  and  _545
REMARK  221  A    between atoms: _544  and  _547
REMARK  222  A    between atoms: _547  and  _548
REMARK  223  A    between atoms: _548  and  _549
REMARK  224  A    between atoms: _552  and  _554
REMARK  225  A    between atoms: _554  and  _555
REMARK  226  A    between atoms: _554  and  _557
REMARK  227  A    between atoms: _557  and  _558
REMARK  228  A    between atoms: _560  and  _562
REMARK  229  A    between atoms: _562  and  _563
REMARK  230  A    between atoms: _562  and  _565
REMARK  231  A    between atoms: _565  and  _566
REMARK  232  A    between atoms: _569  and  _571
REMARK  233  A    between atoms: _571  and  _572
REMARK  234  A    between atoms: _571  and  _574
REMARK  235  A    between atoms: _577  and  _579
REMARK  236  A    between atoms: _579  and  _580
REMARK  237  A    between atoms: _579  and  _582
REMARK  238  A    between atoms: _582  and  _583
REMARK  239  A    between atoms: _588  and  _590
REMARK  240  A    between atoms: _590  and  _591
REMARK  241  A    between atoms: _590  and  _593
REMARK  242  A    between atoms: _593  and  _594
REMARK  243  A    between atoms: _596  and  _598
REMARK  244  A    between atoms: _598  and  _599
REMARK  245  A    between atoms: _598  and  _601
REMARK  246  A    between atoms: _601  and  _602
REMARK  247  A    between atoms: _602  and  _603
REMARK  248  A    between atoms: _606  and  _608
REMARK  249  A    between atoms: _608  and  _609
REMARK  250  A    between atoms: _608  and  _611
REMARK  251  A    between atoms: _611  and  _612
REMARK  252  A    between atoms: _612  and  _613
REMARK  253  A    between atoms: _618  and  _620
REMARK  254  A    between atoms: _620  and  _621
REMARK  255  A    between atoms: _620  and  _623
REMARK  256  A    between atoms: _626  and  _628
REMARK  257  A    between atoms: _628  and  _629
REMARK  258  A    between atoms: _628  and  _631
REMARK  259  A    between atoms: _631  and  _632
REMARK  260  A    between atoms: _638  and  _640
REMARK  261  A    between atoms: _640  and  _641
REMARK  262  A    between atoms: _640  and  _643
REMARK  263  A    between atoms: _643  and  _644
REMARK  264  A    between atoms: _647  and  _649
REMARK  265  A    between atoms: _649  and  _650
REMARK  266  A    between atoms: _649  and  _652
REMARK  267  A    between atoms: _652  and  _653
REMARK  268  A    between atoms: _653  and  _654
REMARK  269  A    between atoms: _654  and  _655
REMARK  270  A    between atoms: _655  and  _656
REMARK  271  A    between atoms: _660  and  _662
REMARK  272  A    between atoms: _662  and  _663
REMARK  273  A    between atoms: _662  and  _665
REMARK  274  A    between atoms: _665  and  _666
REMARK  275  A    between atoms: _666  and  _667
REMARK  276  A    between atoms: _667  and  _668
REMARK  277  A    between atoms: _668  and  _669
REMARK  278  A    between atoms: _673  and  _675
REMARK  279  A    between atoms: _675  and  _676
REMARK  280  A    between atoms: _675  and  _678
REMARK  281  A    between atoms: _678  and  _679
REMARK  282  A    between atoms: _683  and  _684
REMARK  283  A    between atoms: _689  and  _691
REMARK  284  A    between atoms: _691  and  _692
REMARK  285  A    between atoms: _691  and  _694
REMARK  286  A    between atoms: _694  and  _695
REMARK  287  A    between atoms: _698  and  _700
REMARK  288  A    between atoms: _700  and  _701
REMARK  289  A    between atoms: _700  and  _703
REMARK  290  A    between atoms: _703  and  _704
REMARK  291  A    between atoms: _714  and  _716
REMARK  292  A    between atoms: _716  and  _717
REMARK  293  A    between atoms: _716  and  _719
REMARK  294  A    between atoms: _719  and  _720
REMARK                            x       y       z     vdW  Elec       q    Type
REMARK                         _______ _______ _______ _____ _____    ______ ____
ROOT
ATOM      1  CA  LEU A   4      52.584  13.670  -6.618  0.00  0.00    +0.149 C 
ENDROOT
BRANCH   1   3
ATOM      2  C   PHE A   3      50.711  14.173  -8.183  0.00  0.00    +0.241 C 
ATOM      3  N   LEU A   4      51.390  14.403  -7.050  0.00  0.00    -0.297 N 
ATOM      4  H   LEU A   4      51.042  15.161  -6.429  0.00  0.00    +0.150 HD
ATOM      5  O   PHE A   3      51.062  13.338  -9.037  0.00  0.00    -0.273 OA
BRANCH   2   6
ATOM      6  CA  PHE A   3      49.462  15.067  -8.402  0.00  0.00    +0.153 C 
BRANCH   6   9
ATOM      7  C   THR A   2      49.632  16.636 -10.289  0.00  0.00    +0.243 C 
ATOM      8  O   THR A   2      50.015  17.568  -9.591  0.00  0.00    -0.273 OA
ATOM      9  N   PHE A   3      49.327  15.432  -9.810  0.00  0.00    -0.297 N 
ATOM     10  H   PHE A   3      48.974  14.713 -10.473  0.00  0.00    +0.150 HD
BRANCH   7  11
ATOM     11  CA  THR A   2      49.543  16.801 -11.814  0.00  0.00    +0.176 C 
BRANCH  11  13
ATOM     12  C   ILE A   1      47.397  17.581 -12.723  0.00  0.00    +0.238 C 
ATOM     13  N   THR A   2      48.584  17.842 -12.192  0.00  0.00    -0.295 N 
ATOM     14  H   THR A   2      48.847  18.836 -12.036  0.00  0.00    +0.150 HD
ATOM     15  O   ILE A   1      46.959  16.463 -12.873  0.00  0.00    -0.274 OA
BRANCH  12  16
ATOM     16  CA  ILE A   1      46.545  18.771 -13.092  0.00  0.00    +0.145 C 
BRANCH  16  17
ATOM     17  N   ILE A   1      46.030  18.555 -14.452  0.00  0.00    -0.238 NA
ATOM     18  H   ILE A   1      45.497  17.686 -14.659  0.00  0.00    +0.142 HD
ENDBRANCH  16  17
BRANCH  16  19
ATOM     19  CB  ILE A   1      45.409  18.881 -12.054  0.00  0.00    +0.025 C 
ATOM     20  CG2 ILE A   1      46.016  18.985 -10.613  0.00  0.00    +0.002 C 
BRANCH  19  21
ATOM     21  CG1 ILE A   1      44.485  20.068 -12.385  0.00  0.00    +0.002 C 
ATOM     22  CD1 ILE A   1      43.053  19.910 -11.864  0.00  0.00    +0.000 C 
ENDBRANCH  19  21
ENDBRANCH  16  19
ENDBRANCH  12  16
ENDBRANCH  11  13
BRANCH  11  23
ATOM     23  CB  THR A   2      50.970  17.145 -12.343  0.00  0.00    +0.137 C 
ATOM     24  CG2 THR A   2      52.017  16.119 -11.886  0.00  0.00    +0.034 C 
BRANCH  23  25
ATOM     25  OG1 THR A   2      50.945  17.218 -13.777  0.00  0.00    -0.382 OA
ATOM     26  HG1 THR A   2      50.657  16.345 -14.146  0.00  0.00    +0.210 HD
ENDBRANCH  23  25
ENDBRANCH  11  23
ENDBRANCH   7  11
ENDBRANCH   6   9
BRANCH   6  27
ATOM     27  CB  PHE A   3      48.180  14.395  -7.892  0.00  0.00    +0.055 C 
BRANCH  27  28
ATOM     28  CG  PHE A   3      46.914  15.227  -8.102  0.00  0.00    -0.020 A 
ATOM     29  CD2 PHE A   3      46.724  16.415  -7.418  0.00  0.00    -0.004 A 
ATOM     30  CE2 PHE A   3      45.577  17.178  -7.608  0.00  0.00    -0.000 A 
ATOM     31  CZ  PHE A   3      44.584  16.739  -8.482  0.00  0.00    -0.000 A 
ATOM     32  CE1 PHE A   3      44.757  15.534  -9.158  0.00  0.00    -0.000 A 
ATOM     33  CD1 PHE A   3      45.909  14.791  -8.962  0.00  0.00    -0.004 A 
ENDBRANCH  27  28
ENDBRANCH   6  27
ENDBRANCH   2   6
ENDBRANCH   1   3
BRANCH   1  34
ATOM     34  C   LEU A   4      53.658  13.617  -7.695  0.00  0.00    +0.241 C 
ATOM     35  O   LEU A   4      54.385  12.631  -7.808  0.00  0.00    -0.273 OA
ATOM     36  N   LYS A   5      53.734  14.696  -8.473  0.00  0.00    -0.297 N 
ATOM     37  H   LYS A   5      53.058  15.466  -8.295  0.00  0.00    +0.150 HD
BRANCH  36  38
ATOM     38  CA  LYS A   5      54.696  14.879  -9.557  0.00  0.00    +0.149 C 
BRANCH  38  39
ATOM     39  C   LYS A   5      54.531  13.958 -10.777  0.00  0.00    +0.241 C 
ATOM     40  N   ASP A   6      53.860  12.816 -10.619  0.00  0.00    -0.297 N 
ATOM     41  H   ASP A   6      53.379  12.645  -9.713  0.00  0.00    +0.150 HD
ATOM     42  O   LYS A   5      54.960  14.333 -11.865  0.00  0.00    -0.273 OA
BRANCH  40  43
ATOM     43  CA  ASP A   6      53.769  11.787 -11.666  0.00  0.00    +0.160 C 
BRANCH  43  44
ATOM     44  C   ASP A   6      52.374  11.477 -12.213  0.00  0.00    +0.241 C 
ATOM     45  N   PHE A   7      51.334  11.851 -11.490  0.00  0.00    -0.298 N 
ATOM     46  H   PHE A   7      51.482  12.415 -10.629  0.00  0.00    +0.150 HD
ATOM     47  O   ASP A   6      52.241  10.881 -13.273  0.00  0.00    -0.273 OA
BRANCH  45  48
ATOM     48  CA  PHE A   7      49.988  11.484 -11.883  0.00  0.00    +0.141 C 
BRANCH  48  49
ATOM     49  C   PHE A   7      49.272  12.707 -12.491  0.00  0.00    +0.227 C 
ATOM     50  O   PHE A   7      48.828  13.571 -11.757  0.00  0.00    -0.286 OA
ENDBRANCH  48  49
BRANCH  48  51
ATOM     51  CB  PHE A   7      49.231  10.934 -10.657  0.00  0.00    +0.054 C 
BRANCH  51  52
ATOM     52  CG  PHE A   7      49.928   9.789  -9.965  0.00  0.00    -0.020 A 
ATOM     53  CD2 PHE A   7      50.627   9.993  -8.787  0.00  0.00    -0.004 A 
ATOM     54  CE2 PHE A   7      51.277   8.935  -8.141  0.00  0.00    -0.000 A 
ATOM     55  CZ  PHE A   7      51.229   7.653  -8.677  0.00  0.00    -0.000 A 
ATOM     56  CE1 PHE A   7      50.533   7.428  -9.854  0.00  0.00    -0.000 A 
ATOM     57  CD1 PHE A   7      49.885   8.499 -10.497  0.00  0.00    -0.004 A 
ENDBRANCH  51  52
ENDBRANCH  48  51
ENDBRANCH  45  48
ENDBRANCH  43  44
BRANCH  43  58
ATOM     58  CB  ASP A   6      54.353  10.482 -11.123  0.00  0.00    +0.143 C 
BRANCH  58  59
ATOM     59  CG  ASP A   6      55.852  10.427 -11.268  0.00  0.00    +0.367 C 
ATOM     60  OD2 ASP A   6      56.553  10.501 -10.228  0.00  0.00    -0.246 OA
ATOM     61  OD1 ASP A   6      56.319  10.325 -12.431  0.00  0.00    -0.246 OA
ENDBRANCH  58  59
ENDBRANCH  43  58
ENDBRANCH  40  43
ENDBRANCH  38  39
BRANCH  38  62
ATOM     62  CB  LYS A   5      56.130  14.857  -9.012  0.00  0.00    +0.029 C 
BRANCH  62  63
ATOM     63  CG  LYS A   5      56.479  16.151  -8.249  0.00  0.00    +0.000 C 
BRANCH  63  64
ATOM     64  CD  LYS A   5      57.469  15.937  -7.092  0.00  0.00    -0.024 C 
BRANCH  64  65
ATOM     65  CE  LYS A   5      58.712  15.128  -7.513  0.00  0.00    -0.086 C 
BRANCH  65  66
ATOM     66  NZ  LYS A   5      59.379  15.649  -8.762  0.00  0.00    +0.380 N 
ATOM     67  HZ1 LYS A   5      59.685  16.631  -8.606  0.00  0.00    -0.089 HD
ATOM     68  HZ2 LYS A   5      60.205  15.058  -8.985  0.00  0.00    -0.089 HD
ATOM     69  HZ3 LYS A   5      58.705  15.616  -9.553  0.00  0.00    -0.089 HD
ENDBRANCH  65  66
ENDBRANCH  64  65
ENDBRANCH  63  64
ENDBRANCH  62  63
ENDBRANCH  38  62
ENDBRANCH  36  38
ENDBRANCH   1  34
BRANCH   1  70
ATOM     70  CB  LEU A   4      52.206  12.258  -6.157  0.00  0.00    +0.029 C 
BRANCH  70  71
ATOM     71  CG  LEU A   4      51.211  12.185  -4.984  0.00  0.00    +0.002 C 
ATOM     72  CD2 LEU A   4      51.776  12.884  -3.756  0.00  0.00    +0.000 C 
ATOM     73  CD1 LEU A   4      50.884  10.750  -4.686  0.00  0.00    +0.000 C 
ENDBRANCH  70  71
ENDBRANCH   1  70
TORSDOF 31
REMARK  Name = ../refined-set-2016/3ipq/3ipq_pocket.pdb
REMARK  294 active torsions:
REMARK  status: ('A' for Active; 'I' for Inactive)
REMARK    1  A    between atoms: _1  and  _3
REMARK    2  A    between atoms: _3  and  _4
REMARK    3  A    between atoms: _3  and  _6
REMARK    4  A    between atoms: _6  and  _7
REMARK    5  A    between atoms: _7  and  _8
REMARK    6  A    between atoms: _13  and  _15
REMARK    7  A    between atoms: _15  and  _16
REMARK    8  A    between atoms: _15  and  _18
REMARK    9  A    between atoms: _18  and  _19
REMARK   10  A    between atoms: _19  and  _20
REMARK   11  A    between atoms: _20  and  _21
REMARK   12  A    between atoms: _30  and  _32
REMARK   13  A    between atoms: _32  and  _33
REMARK   14  A    between atoms: _32  and  _35
REMARK   15  A    between atoms: _35  and  _36
REMARK   16  A    between atoms: _42  and  _44
REMARK   17  A    between atoms: _44  and  _45
REMARK   18  A    between atoms: _48  and  _50
REMARK   19  A    between atoms: _50  and  _51
REMARK   20  A    between atoms: _50  and  _53
REMARK   21  A    between atoms: _53  and  _54
REMARK   22  A    between atoms: _59  and  _61
REMARK   23  A    between atoms: _61  and  _62
REMARK   24  A    between atoms: _61  and  _64
REMARK   25  A    between atoms: _64  and  _65
REMARK   26  A    between atoms: _71  and  _73
REMARK   27  A    between atoms: _73  and  _74
REMARK   28  A    between atoms: _73  and  _76
REMARK   29  A    between atoms: _76  and  _77
REMARK   30  A    between atoms: _80  and  _82
REMARK   31  A    between atoms: _82  and  _83
REMARK   32  A    between atoms: _82  and  _85
REMARK   33  A    between atoms: _85  and  _86
REMARK   34  A    between atoms: _86  and  _87
REMARK   35  A    between atoms: _90  and  _92
REMARK   36  A    between atoms: _92  and  _93
REMARK   37  A    between atoms: _92  and  _95
REMARK   38  A    between atoms: _95  and  _96
REMARK   39  A    between atoms: _99  and  _101
REMARK   40  A    between atoms: _101  and  _102
REMARK   41  A    between atoms: _105  and  _107
REMARK   42  A    between atoms: _107  and  _108
REMARK   43  A    between atoms: _107  and  _110
REMARK   44  A    between atoms: _110  and  _111
REMARK   45  A    between atoms: _114  and  _116
REMARK   46  A    between atoms: _116  and  _117
REMARK   47  A    between atoms: _116  and  _119
REMARK   48  A    between atoms: _122  and  _124
REMARK   49  A    between atoms: _124  and  _125
REMARK   50  A    between atoms: _124  and  _127
REMARK   51  A    between atoms: _127  and  _128
REMARK   52  A    between atoms: _130  and  _132
REMARK   53  A    between atoms: _132  and  _133
REMARK   54  A    between atoms: _132  and  _135
REMARK   55  A    between atoms: _138  and  _140
REMARK   56  A    between atoms: _140  and  _141
REMARK   57  A    between atoms: _140  and  _143
REMARK   58  A    between atoms: _143  and  _144
REMARK   59  A    between atoms: _144  and  _145
REMARK   60  A    between atoms: _150  and  _152
REMARK   61  A    between atoms: _152  and  _153
REMARK   62  A    between atoms: _152  and  _155
REMARK   63  A    between atoms: _155  and  _156
REMARK   64  A    between atoms: _156  and  _157
REMARK   65  A    between atoms: _160  and  _162
REMARK   66  A    between atoms: _162  and  _163
REMARK   67  A    between atoms: _162  and  _165
REMARK   68  A    between atoms: _165  and  _166
REMARK   69  A    between atoms: _169  and  _171
REMARK   70  A    between atoms: _171  and  _172
REMARK   71  A    between atoms: _175  and  _177
REMARK   72  A    between atoms: _177  and  _178
REMARK   73  A    between atoms: _177  and  _180
REMARK   74  A    between atoms: _180  and  _181
REMARK   75  A    between atoms: _184  and  _186
REMARK   76  A    between atoms: _186  and  _187
REMARK   77  A    between atoms: _186  and  _189
REMARK   78  A    between atoms: _189  and  _190
REMARK   79  A    between atoms: _190  and  _191
REMARK   80  A    between atoms: _194  and  _196
REMARK   81  A    between atoms: _196  and  _197
REMARK   82  A    between atoms: _196  and  _199
REMARK   83  A    between atoms: _202  and  _204
REMARK   84  A    between atoms: _204  and  _205
REMARK   85  A    between atoms: _204  and  _207
REMARK   86  A    between atoms: _207  and  _208
REMARK   87  A    between atoms: _208  and  _209
REMARK   88  A    between atoms: _211  and  _213
REMARK   89  A    between atoms: _213  and  _214
REMARK   90  A    between atoms: _213  and  _216
REMARK   91  A    between atoms: _216  and  _217
REMARK   92  A    between atoms: _220  and  _222
REMARK   93  A    between atoms: _222  and  _223
REMARK   94  A    between atoms: _222  and  _225
REMARK   95  A    between atoms: _225  and  _226
REMARK   96  A    between atoms: _229  and  _231
REMARK   97  A    between atoms: _231  and  _232
REMARK   98  A    between atoms: _231  and  _234
REMARK   99  A    between atoms: _234  and  _235
REMARK  100  A    between atoms: _235  and  _236
REMARK  101  A    between atoms: _239  and  _241
REMARK  102  A    between atoms: _241  and  _242
REMARK  103  A    between atoms: _241  and  _244
REMARK  104  A    between atoms: _244  and  _245
REMARK  105  A    between atoms: _248  and  _250
REMARK  106  A    between atoms: _250  and  _251
REMARK  107  A    between atoms: _250  and  _253
REMARK  108  A    between atoms: _253  and  _254
REMARK  109  A    between atoms: _256  and  _258
REMARK  110  A    between atoms: _258  and  _259
REMARK  111  A    between atoms: _258  and  _261
REMARK  112  A    between atoms: _261  and  _262
REMARK  113  A    between atoms: _262  and  _263
REMARK  114  A    between atoms: _263  and  _264
REMARK  115  A    between atoms: _273  and  _275
REMARK  116  A    between atoms: _275  and  _276
REMARK  117  A    between atoms: _275  and  _278
REMARK  118  A    between atoms: _278  and  _279
REMARK  119  A    between atoms: _279  and  _280
REMARK  120  A    between atoms: _280  and  _281
REMARK  121  A    between atoms: _290  and  _292
REMARK  122  A    between atoms: _292  and  _293
REMARK  123  A    between atoms: _292  and  _295
REMARK  124  A    between atoms: _295  and  _296
REMARK  125  A    between atoms: _299  and  _301
REMARK  126  A    between atoms: _301  and  _302
REMARK  127  A    between atoms: _301  and  _304
REMARK  128  A    between atoms: _304  and  _305
REMARK  129  A    between atoms: _308  and  _310
REMARK  130  A    between atoms: _310  and  _311
REMARK  131  A    between atoms: _310  and  _313
REMARK  132  A    between atoms: _313  and  _314
REMARK  133  A    between atoms: _320  and  _322
REMARK  134  A    between atoms: _322  and  _323
REMARK  135  A    between atoms: _322  and  _325
REMARK  136  A    between atoms: _325  and  _326
REMARK  137  A    between atoms: _329  and  _331
REMARK  138  A    between atoms: _331  and  _332
REMARK  139  A    between atoms: _331  and  _334
REMARK  140  A    between atoms: _334  and  _335
REMARK  141  A    between atoms: _335  and  _336
REMARK  142  A    between atoms: _336  and  _337
REMARK  143  A    between atoms: _337  and  _338
REMARK  144  A    between atoms: _342  and  _344
REMARK  145  A    between atoms: _344  and  _345
REMARK  146  A    between atoms: _344  and  _347
REMARK  147  A    between atoms: _347  and  _348
REMARK  148  A    between atoms: _351  and  _353
REMARK  149  A    between atoms: _353  and  _354
REMARK  150  A    between atoms: _353  and  _356
REMARK  151  A    between atoms: _356  and  _357
REMARK  152  A    between atoms: _363  and  _365
REMARK  153  A    between atoms: _365  and  _366
REMARK  154  A    between atoms: _365  and  _368
REMARK  155  A    between atoms: _368  and  _369
REMARK  156  A    between atoms: _374  and  _375
REMARK  157  A    between atoms: _377  and  _379
REMARK  158  A    between atoms: _379  and  _380
REMARK  159  A    between atoms: _379  and  _382
REMARK  160  A    between atoms: _382  and  _383
REMARK  161  A    between atoms: _388  and  _390
REMARK  162  A    between atoms: _390  and  _391
REMARK  163  A    between atoms: _390  and  _393
REMARK  164  A    between atoms: _393  and  _394
REMARK  165  A    between atoms: _394  and  _395
REMARK  166  A    between atoms: _395  and  _396
REMARK  167  A    between atoms: _405  and  _407
REMARK  168  A    between atoms: _407  and  _408
REMARK  169  A    between atoms: _407  and  _410
REMARK  170  A    between atoms: _410  and  _411
REMARK  171  A    between atoms: _414  and  _416
REMARK  172  A    between atoms: _416  and  _417
REMARK  173  A    between atoms: _416  and  _419
REMARK  174  A    between atoms: _419  and  _420
REMARK  175  A    between atoms: _426  and  _428
REMARK  176  A    between atoms: _428  and  _429
REMARK  177  A    between atoms: _432  and  _434
REMARK  178  A    between atoms: _434  and  _435
REMARK  179  A    between atoms: _438  and  _440
REMARK  180  A    between atoms: _440  and  _441
REMARK  181  A    between atoms: _443  and  _445
REMARK  182  A    between atoms: _445  and  _446
REMARK  183  A    between atoms: _445  and  _448
REMARK  184  A    between atoms: _448  and  _449
REMARK  185  A    between atoms: _452  and  _454
REMARK  186  A    between atoms: _454  and  _455
REMARK  187  A    between atoms: _454  and  _457
REMARK  188  A    between atoms: _457  and  _458
REMARK  189  A    between atoms: _458  and  _459
REMARK  190  A    between atoms: _464  and  _466
REMARK  191  A    between atoms: _466  and  _467
REMARK  192  A    between atoms: _466  and  _469
REMARK  193  A    between atoms: _472  and  _474
REMARK  194  A    between atoms: _474  and  _475
REMARK  195  A    between atoms: _474  and  _477
REMARK  196  A    between atoms: _477  and  _478
REMARK  197  A    between atoms: _478  and  _479
REMARK  198  A    between atoms: _482  and  _484
REMARK  199  A    between atoms: _484  and  _485
REMARK  200  A    between atoms: _484  and  _487
REMARK  201  A    between atoms: _487  and  _488
REMARK  202  A    between atoms: _494  and  _496
REMARK  203  A    between atoms: _496  and  _497
REMARK  204  A    between atoms: _496  and  _499
REMARK  205  A    between atoms: _499  and  _500
REMARK  206  A    between atoms: _503  and  _505
REMARK  207  A    between atoms: _505  and  _506
REMARK  208  A    between atoms: _505  and  _508
REMARK  209  A    between atoms: _508  and  _509
REMARK  210  A    between atoms: _515  and  _516
REMARK  211  A    between atoms: _521  and  _523
REMARK  212  A    between atoms: _523  and  _524
REMARK  213  A    between atoms: _523  and  _526
REMARK  214  A    between atoms: _526  and  _527
REMARK  215  A    between atoms: _530  and  _532
REMARK  216  A    between atoms: _532  and  _533
REMARK  217  A    between atoms: _532  and  _535
REMARK  218  A    between atoms: _535  and  _536
REMARK  219  A    between atoms: _542  and  _544
REMARK  220  A    between atoms: _544  and  _545
REMARK  221  A    between atoms: _544  and  _547
REMARK  222  A    between atoms: _547  and  _548
REMARK  223  A    between atoms: _548  and  _549
REMARK  224  A    between atoms: _552  and  _554
REMARK  225  A    between atoms: _554  and  _555
REMARK  226  A    between atoms: _554  and  _557
REMARK  227  A    between atoms: _557  and  _558
REMARK  228  A    between atoms: _560  and  _562
REMARK  229  A    between atoms: _562  and  _563
REMARK  230  A    between atoms: _562  and  _565
REMARK  231  A    between atoms: _565  and  _566
REMARK  232  A    between atoms: _569  and  _571
REMARK  233  A    between atoms: _571  and  _572
REMARK  234  A    between atoms: _571  and  _574
REMARK  235  A    between atoms: _577  and  _579
REMARK  236  A    between atoms: _579  and  _580
REMARK  237  A    between atoms: _579  and  _582
REMARK  238  A    between atoms: _582  and  _583
REMARK  239  A    between atoms: _588  and  _590
REMARK  240  A    between atoms: _590  and  _591
REMARK  241  A    between atoms: _590  and  _593
REMARK  242  A    between atoms: _593  and  _594
REMARK  243  A    between atoms: _596  and  _598
REMARK  244  A    between atoms: _598  and  _599
REMARK  245  A    between atoms: _598  and  _601
REMARK  246  A    between atoms: _601  and  _602
REMARK  247  A    between atoms: _602  and  _603
REMARK  248  A    between atoms: _606  and  _608
REMARK  249  A    between atoms: _608  and  _609
REMARK  250  A    between atoms: _608  and  _611
REMARK  251  A    between atoms: _611  and  _612
REMARK  252  A    between atoms: _612  and  _613
REMARK  253  A    between atoms: _618  and  _620
REMARK  254  A    between atoms: _620  and  _621
REMARK  255  A    between atoms: _620  and  _623
REMARK  256  A    between atoms: _626  and  _628
REMARK  257  A    between atoms: _628  and  _629
REMARK  258  A    between atoms: _628  and  _631
REMARK  259  A    between atoms: _631  and  _632
REMARK  260  A    between atoms: _638  and  _640
REMARK  261  A    between atoms: _640  and  _641
REMARK  262  A    between atoms: _640  and  _643
REMARK  263  A    between atoms: _643  and  _644
REMARK  264  A    between atoms: _647  and  _649
REMARK  265  A    between atoms: _649  and  _650
REMARK  266  A    between atoms: _649  and  _652
REMARK  267  A    between atoms: _652  and  _653
REMARK  268  A    between atoms: _653  and  _654
REMARK  269  A    between atoms: _654  and  _655
REMARK  270  A    between atoms: _655  and  _656
REMARK  271  A    between atoms: _660  and  _662
REMARK  272  A    between atoms: _662  and  _663
REMARK  273  A    between atoms: _662  and  _665
REMARK  274  A    between atoms: _665  and  _666
REMARK  275  A    between atoms: _666  and  _667
REMARK  276  A    between atoms: _667  and  _668
REMARK  277  A    between atoms: _668  and  _669
REMARK  278  A    between atoms: _673  and  _675
REMARK  279  A    between atoms: _675  and  _676
REMARK  280  A    between atoms: _675  and  _678
REMARK  281  A    between atoms: _678  and  _679
REMARK  282  A    between atoms: _683  and  _684
REMARK  283  A    between atoms: _689  and  _691
REMARK  284  A    between atoms: _691  and  _692
REMARK  285  A    between atoms: _691  and  _694
REMARK  286  A    between atoms: _694  and  _695
REMARK  287  A    between atoms: _698  and  _700
REMARK  288  A    between atoms: _700  and  _701
REMARK  289  A    between atoms: _700  and  _703
REMARK  290  A    between atoms: _703  and  _704
REMARK  291  A    between atoms: _714  and  _716
REMARK  292  A    between atoms: _716  and  _717
REMARK  293  A    between atoms: _716  and  _719
REMARK  294  A    between atoms: _719  and  _720
REMARK                            x       y       z     vdW  Elec       q    Type
REMARK                         _______ _______ _______ _____ _____    ______ ____
ROOT
ATOM      1  CA  ASN A   2      42.319  16.199 -17.351  0.00  0.00    +0.158 C 
ENDROOT
BRANCH   1   4
ATOM      2  C   TYR A   1      44.061  15.435 -15.801  0.00  0.00    +0.239 C 
ATOM      3  O   TYR A   1      44.318  16.581 -15.421  0.00  0.00    -0.274 OA
ATOM      4  N   ASN A   2      43.146  15.164 -16.728  0.00  0.00    -0.297 N 
ATOM      5  H   ASN A   2      43.013  14.175 -17.022  0.00  0.00    +0.150 HD
BRANCH   2   6
ATOM      6  CA  TYR A   1      44.768  14.222 -15.184  0.00  0.00    +0.149 C 
BRANCH   6   7
ATOM      7  N   TYR A   1      46.186  14.471 -14.887  0.00  0.00    -0.238 NA
ATOM      8  H   TYR A   1      46.458  15.402 -14.512  0.00  0.00    +0.142 HD
ENDBRANCH   6   7
BRANCH   6   9
ATOM      9  CB  TYR A   1      44.026  13.808 -13.913  0.00  0.00    +0.053 C 
BRANCH   9  10
ATOM     10  CG  TYR A   1      44.647  12.630 -13.209  0.00  0.00    -0.020 A 
ATOM     11  CD2 TYR A   1      45.549  12.811 -12.179  0.00  0.00    -0.001 A 
ATOM     12  CE2 TYR A   1      46.131  11.730 -11.539  0.00  0.00    +0.036 A 
ATOM     13  CZ  TYR A   1      45.823  10.445 -11.952  0.00  0.00    +0.134 A 
ATOM     14  CE1 TYR A   1      44.950  10.245 -12.977  0.00  0.00    +0.036 A 
ATOM     15  CD1 TYR A   1      44.364  11.333 -13.606  0.00  0.00    -0.001 A 
BRANCH  13  16
ATOM     16  OH  TYR A   1      46.389   9.355 -11.338  0.00  0.00    -0.506 OA
ATOM     17  HH  TYR A   1      46.147   9.356 -10.378  0.00  0.00    +0.292 HD
ENDBRANCH  13  16
ENDBRANCH   9  10
ENDBRANCH   6   9
ENDBRANCH   2   6
ENDBRANCH   1   4
BRANCH   1  18
ATOM     18  C   ASN A   2      40.854  16.061 -16.955  0.00  0.00    +0.241 C 
ATOM     19  O   ASN A   2      40.527  15.184 -16.190  0.00  0.00    -0.273 OA
ATOM     20  N   ARG A   3      39.982  16.931 -17.457  0.00  0.00    -0.298 N 
ATOM     21  H   ARG A   3      40.307  17.618 -18.167  0.00  0.00    +0.150 HD
BRANCH  20  22
ATOM     22  CA  ARG A   3      38.576  16.951 -17.040  0.00  0.00    +0.137 C 
BRANCH  22  23
ATOM     23  C   ARG A   3      37.901  15.621 -17.210  0.00  0.00    +0.227 C 
ATOM     24  O   ARG A   3      37.096  15.225 -16.381  0.00  0.00    -0.286 OA
ENDBRANCH  22  23
BRANCH  22  25
ATOM     25  CB  ARG A   3      37.762  17.951 -17.845  0.00  0.00    +0.031 C 
BRANCH  25  26
ATOM     26  CG  ARG A   3      38.015  19.394 -17.549  0.00  0.00    +0.045 C 
BRANCH  26  27
ATOM     27  CD  ARG A   3      37.215  20.241 -18.495  0.00  0.00    +0.174 C 
BRANCH  27  28
ATOM     28  NE  ARG A   3      37.129  21.647 -18.101  0.00  0.00    -0.265 N 
ATOM     29  HE  ARG A   3      36.288  21.944 -17.567  0.00  0.00    +0.259 HD
ATOM     30  CZ  ARG A   3      38.046  22.580 -18.373  0.00  0.00    +0.342 C 
ATOM     31  NH2 ARG A   3      37.820  23.829 -17.986  0.00  0.00    -0.292 N 
ATOM     32 HH21 ARG A   3      36.942  24.066 -17.481  0.00  0.00    +0.255 HD
ATOM     33 HH22 ARG A   3      38.521  24.571 -18.188  0.00  0.00    +0.255 HD
ATOM     34  NH1 ARG A   3      39.196  22.287 -19.004  0.00  0.00    -0.292 N 
ATOM     35 HH11 ARG A   3      39.888  23.038 -19.200  0.00  0.00    +0.255 HD
ATOM     36 HH12 ARG A   3      39.394  21.309 -19.296  0.00  0.00    +0.255 HD
ENDBRANCH  27  28
ENDBRANCH  26  27
ENDBRANCH  25  26
ENDBRANCH  22  25
ENDBRANCH  20  22
ENDBRANCH   1  18
BRANCH   1  37
ATOM     37  CB  ASN A   2      42.525  16.217 -18.871  0.00  0.00    +0.114 C 
BRANCH  37  38
ATOM     38  CG  ASN A   2      42.028  14.963 -19.572  0.00  0.00    +0.222 C 
ATOM     39  OD1 ASN A   2      41.106  14.311 -19.128  0.00  0.00    -0.275 OA
ATOM     40  ND2 ASN A   2      42.634  14.653 -20.710  0.00  0.00    -0.329 N 
ATOM     41 HD21 ASN A   2      43.421  15.238 -21.056  0.00  0.00    +0.145 HD
ATOM     42 HD22 ASN A   2      42.322  13.825 -21.256  0.00  0.00    +0.145 HD
ENDBRANCH  37  38
ENDBRANCH   1  37
TORSDOF 15
REMARK  Name = ../refined-set-2016/3ipq/3ipq_pocket.pdb
REMARK  294 active torsions:
REMARK  status: ('A' for Active; 'I' for Inactive)
REMARK    1  A    between atoms: _1  and  _3
REMARK    2  A    between atoms: _3  and  _4
REMARK    3  A    between atoms: _3  and  _6
REMARK    4  A    between atoms: _6  and  _7
REMARK    5  A    between atoms: _7  and  _8
REMARK    6  A    between atoms: _13  and  _15
REMARK    7  A    between atoms: _15  and  _16
REMARK    8  A    between atoms: _15  and  _18
REMARK    9  A    between atoms: _18  and  _19
REMARK   10  A    between atoms: _19  and  _20
REMARK   11  A    between atoms: _20  and  _21
REMARK   12  A    between atoms: _30  and  _32
REMARK   13  A    between atoms: _32  and  _33
REMARK   14  A    between atoms: _32  and  _35
REMARK   15  A    between atoms: _35  and  _36
REMARK   16  A    between atoms: _42  and  _44
REMARK   17  A    between atoms: _44  and  _45
REMARK   18  A    between atoms: _48  and  _50
REMARK   19  A    between atoms: _50  and  _51
REMARK   20  A    between atoms: _50  and  _53
REMARK   21  A    between atoms: _53  and  _54
REMARK   22  A    between atoms: _59  and  _61
REMARK   23  A    between atoms: _61  and  _62
REMARK   24  A    between atoms: _61  and  _64
REMARK   25  A    between atoms: _64  and  _65
REMARK   26  A    between atoms: _71  and  _73
REMARK   27  A    between atoms: _73  and  _74
REMARK   28  A    between atoms: _73  and  _76
REMARK   29  A    between atoms: _76  and  _77
REMARK   30  A    between atoms: _80  and  _82
REMARK   31  A    between atoms: _82  and  _83
REMARK   32  A    between atoms: _82  and  _85
REMARK   33  A    between atoms: _85  and  _86
REMARK   34  A    between atoms: _86  and  _87
REMARK   35  A    between atoms: _90  and  _92
REMARK   36  A    between atoms: _92  and  _93
REMARK   37  A    between atoms: _92  and  _95
REMARK   38  A    between atoms: _95  and  _96
REMARK   39  A    between atoms: _99  and  _101
REMARK   40  A    between atoms: _101  and  _102
REMARK   41  A    between atoms: _105  and  _107
REMARK   42  A    between atoms: _107  and  _108
REMARK   43  A    between atoms: _107  and  _110
REMARK   44  A    between atoms: _110  and  _111
REMARK   45  A    between atoms: _114  and  _116
REMARK   46  A    between atoms: _116  and  _117
REMARK   47  A    between atoms: _116  and  _119
REMARK   48  A    between atoms: _122  and  _124
REMARK   49  A    between atoms: _124  and  _125
REMARK   50  A    between atoms: _124  and  _127
REMARK   51  A    between atoms: _127  and  _128
REMARK   52  A    between atoms: _130  and  _132
REMARK   53  A    between atoms: _132  and  _133
REMARK   54  A    between atoms: _132  and  _135
REMARK   55  A    between atoms: _138  and  _140
REMARK   56  A    between atoms: _140  and  _141
REMARK   57  A    between atoms: _140  and  _143
REMARK   58  A    between atoms: _143  and  _144
REMARK   59  A    between atoms: _144  and  _145
REMARK   60  A    between atoms: _150  and  _152
REMARK   61  A    between atoms: _152  and  _153
REMARK   62  A    between atoms: _152  and  _155
REMARK   63  A    between atoms: _155  and  _156
REMARK   64  A    between atoms: _156  and  _157
REMARK   65  A    between atoms: _160  and  _162
REMARK   66  A    between atoms: _162  and  _163
REMARK   67  A    between atoms: _162  and  _165
REMARK   68  A    between atoms: _165  and  _166
REMARK   69  A    between atoms: _169  and  _171
REMARK   70  A    between atoms: _171  and  _172
REMARK   71  A    between atoms: _175  and  _177
REMARK   72  A    between atoms: _177  and  _178
REMARK   73  A    between atoms: _177  and  _180
REMARK   74  A    between atoms: _180  and  _181
REMARK   75  A    between atoms: _184  and  _186
REMARK   76  A    between atoms: _186  and  _187
REMARK   77  A    between atoms: _186  and  _189
REMARK   78  A    between atoms: _189  and  _190
REMARK   79  A    between atoms: _190  and  _191
REMARK   80  A    between atoms: _194  and  _196
REMARK   81  A    between atoms: _196  and  _197
REMARK   82  A    between atoms: _196  and  _199
REMARK   83  A    between atoms: _202  and  _204
REMARK   84  A    between atoms: _204  and  _205
REMARK   85  A    between atoms: _204  and  _207
REMARK   86  A    between atoms: _207  and  _208
REMARK   87  A    between atoms: _208  and  _209
REMARK   88  A    between atoms: _211  and  _213
REMARK   89  A    between atoms: _213  and  _214
REMARK   90  A    between atoms: _213  and  _216
REMARK   91  A    between atoms: _216  and  _217
REMARK   92  A    between atoms: _220  and  _222
REMARK   93  A    between atoms: _222  and  _223
REMARK   94  A    between atoms: _222  and  _225
REMARK   95  A    between atoms: _225  and  _226
REMARK   96  A    between atoms: _229  and  _231
REMARK   97  A    between atoms: _231  and  _232
REMARK   98  A    between atoms: _231  and  _234
REMARK   99  A    between atoms: _234  and  _235
REMARK  100  A    between atoms: _235  and  _236
REMARK  101  A    between atoms: _239  and  _241
REMARK  102  A    between atoms: _241  and  _242
REMARK  103  A    between atoms: _241  and  _244
REMARK  104  A    between atoms: _244  and  _245
REMARK  105  A    between atoms: _248  and  _250
REMARK  106  A    between atoms: _250  and  _251
REMARK  107  A    between atoms: _250  and  _253
REMARK  108  A    between atoms: _253  and  _254
REMARK  109  A    between atoms: _256  and  _258
REMARK  110  A    between atoms: _258  and  _259
REMARK  111  A    between atoms: _258  and  _261
REMARK  112  A    between atoms: _261  and  _262
REMARK  113  A    between atoms: _262  and  _263
REMARK  114  A    between atoms: _263  and  _264
REMARK  115  A    between atoms: _273  and  _275
REMARK  116  A    between atoms: _275  and  _276
REMARK  117  A    between atoms: _275  and  _278
REMARK  118  A    between atoms: _278  and  _279
REMARK  119  A    between atoms: _279  and  _280
REMARK  120  A    between atoms: _280  and  _281
REMARK  121  A    between atoms: _290  and  _292
REMARK  122  A    between atoms: _292  and  _293
REMARK  123  A    between atoms: _292  and  _295
REMARK  124  A    between atoms: _295  and  _296
REMARK  125  A    between atoms: _299  and  _301
REMARK  126  A    between atoms: _301  and  _302
REMARK  127  A    between atoms: _301  and  _304
REMARK  128  A    between atoms: _304  and  _305
REMARK  129  A    between atoms: _308  and  _310
REMARK  130  A    between atoms: _310  and  _311
REMARK  131  A    between atoms: _310  and  _313
REMARK  132  A    between atoms: _313  and  _314
REMARK  133  A    between atoms: _320  and  _322
REMARK  134  A    between atoms: _322  and  _323
REMARK  135  A    between atoms: _322  and  _325
REMARK  136  A    between atoms: _325  and  _326
REMARK  137  A    between atoms: _329  and  _331
REMARK  138  A    between atoms: _331  and  _332
REMARK  139  A    between atoms: _331  and  _334
REMARK  140  A    between atoms: _334  and  _335
REMARK  141  A    between atoms: _335  and  _336
REMARK  142  A    between atoms: _336  and  _337
REMARK  143  A    between atoms: _337  and  _338
REMARK  144  A    between atoms: _342  and  _344
REMARK  145  A    between atoms: _344  and  _345
REMARK  146  A    between atoms: _344  and  _347
REMARK  147  A    between atoms: _347  and  _348
REMARK  148  A    between atoms: _351  and  _353
REMARK  149  A    between atoms: _353  and  _354
REMARK  150  A    between atoms: _353  and  _356
REMARK  151  A    between atoms: _356  and  _357
REMARK  152  A    between atoms: _363  and  _365
REMARK  153  A    between atoms: _365  and  _366
REMARK  154  A    between atoms: _365  and  _368
REMARK  155  A    between atoms: _368  and  _369
REMARK  156  A    between atoms: _374  and  _375
REMARK  157  A    between atoms: _377  and  _379
REMARK  158  A    between atoms: _379  and  _380
REMARK  159  A    between atoms: _379  and  _382
REMARK  160  A    between atoms: _382  and  _383
REMARK  161  A    between atoms: _388  and  _390
REMARK  162  A    between atoms: _390  and  _391
REMARK  163  A    between atoms: _390  and  _393
REMARK  164  A    between atoms: _393  and  _394
REMARK  165  A    between atoms: _394  and  _395
REMARK  166  A    between atoms: _395  and  _396
REMARK  167  A    between atoms: _405  and  _407
REMARK  168  A    between atoms: _407  and  _408
REMARK  169  A    between atoms: _407  and  _410
REMARK  170  A    between atoms: _410  and  _411
REMARK  171  A    between atoms: _414  and  _416
REMARK  172  A    between atoms: _416  and  _417
REMARK  173  A    between atoms: _416  and  _419
REMARK  174  A    between atoms: _419  and  _420
REMARK  175  A    between atoms: _426  and  _428
REMARK  176  A    between atoms: _428  and  _429
REMARK  177  A    between atoms: _432  and  _434
REMARK  178  A    between atoms: _434  and  _435
REMARK  179  A    between atoms: _438  and  _440
REMARK  180  A    between atoms: _440  and  _441
REMARK  181  A    between atoms: _443  and  _445
REMARK  182  A    between atoms: _445  and  _446
REMARK  183  A    between atoms: _445  and  _448
REMARK  184  A    between atoms: _448  and  _449
REMARK  185  A    between atoms: _452  and  _454
REMARK  186  A    between atoms: _454  and  _455
REMARK  187  A    between atoms: _454  and  _457
REMARK  188  A    between atoms: _457  and  _458
REMARK  189  A    between atoms: _458  and  _459
REMARK  190  A    between atoms: _464  and  _466
REMARK  191  A    between atoms: _466  and  _467
REMARK  192  A    between atoms: _466  and  _469
REMARK  193  A    between atoms: _472  and  _474
REMARK  194  A    between atoms: _474  and  _475
REMARK  195  A    between atoms: _474  and  _477
REMARK  196  A    between atoms: _477  and  _478
REMARK  197  A    between atoms: _478  and  _479
REMARK  198  A    between atoms: _482  and  _484
REMARK  199  A    between atoms: _484  and  _485
REMARK  200  A    between atoms: _484  and  _487
REMARK  201  A    between atoms: _487  and  _488
REMARK  202  A    between atoms: _494  and  _496
REMARK  203  A    between atoms: _496  and  _497
REMARK  204  A    between atoms: _496  and  _499
REMARK  205  A    between atoms: _499  and  _500
REMARK  206  A    between atoms: _503  and  _505
REMARK  207  A    between atoms: _505  and  _506
REMARK  208  A    between atoms: _505  and  _508
REMARK  209  A    between atoms: _508  and  _509
REMARK  210  A    between atoms: _515  and  _516
REMARK  211  A    between atoms: _521  and  _523
REMARK  212  A    between atoms: _523  and  _524
REMARK  213  A    between atoms: _523  and  _526
REMARK  214  A    between atoms: _526  and  _527
REMARK  215  A    between atoms: _530  and  _532
REMARK  216  A    between atoms: _532  and  _533
REMARK  217  A    between atoms: _532  and  _535
REMARK  218  A    between atoms: _535  and  _536
REMARK  219  A    between atoms: _542  and  _544
REMARK  220  A    between atoms: _544  and  _545
REMARK  221  A    between atoms: _544  and  _547
REMARK  222  A    between atoms: _547  and  _548
REMARK  223  A    between atoms: _548  and  _549
REMARK  224  A    between atoms: _552  and  _554
REMARK  225  A    between atoms: _554  and  _555
REMARK  226  A    between atoms: _554  and  _557
REMARK  227  A    between atoms: _557  and  _558
REMARK  228  A    between atoms: _560  and  _562
REMARK  229  A    between atoms: _562  and  _563
REMARK  230  A    between atoms: _562  and  _565
REMARK  231  A    between atoms: _565  and  _566
REMARK  232  A    between atoms: _569  and  _571
REMARK  233  A    between atoms: _571  and  _572
REMARK  234  A    between atoms: _571  and  _574
REMARK  235  A    between atoms: _577  and  _579
REMARK  236  A    between atoms: _579  and  _580
REMARK  237  A    between atoms: _579  and  _582
REMARK  238  A    between atoms: _582  and  _583
REMARK  239  A    between atoms: _588  and  _590
REMARK  240  A    between atoms: _590  and  _591
REMARK  241  A    between atoms: _590  and  _593
REMARK  242  A    between atoms: _593  and  _594
REMARK  243  A    between atoms: _596  and  _598
REMARK  244  A    between atoms: _598  and  _599
REMARK  245  A    between atoms: _598  and  _601
REMARK  246  A    between atoms: _601  and  _602
REMARK  247  A    between atoms: _602  and  _603
REMARK  248  A    between atoms: _606  and  _608
REMARK  249  A    between atoms: _608  and  _609
REMARK  250  A    between atoms: _608  and  _611
REMARK  251  A    between atoms: _611  and  _612
REMARK  252  A    between atoms: _612  and  _613
REMARK  253  A    between atoms: _618  and  _620
REMARK  254  A    between atoms: _620  and  _621
REMARK  255  A    between atoms: _620  and  _623
REMARK  256  A    between atoms: _626  and  _628
REMARK  257  A    between atoms: _628  and  _629
REMARK  258  A    between atoms: _628  and  _631
REMARK  259  A    between atoms: _631  and  _632
REMARK  260  A    between atoms: _638  and  _640
REMARK  261  A    between atoms: _640  and  _641
REMARK  262  A    between atoms: _640  and  _643
REMARK  263  A    between atoms: _643  and  _644
REMARK  264  A    between atoms: _647  and  _649
REMARK  265  A    between atoms: _649  and  _650
REMARK  266  A    between atoms: _649  and  _652
REMARK  267  A    between atoms: _652  and  _653
REMARK  268  A    between atoms: _653  and  _654
REMARK  269  A    between atoms: _654  and  _655
REMARK  270  A    between atoms: _655  and  _656
REMARK  271  A    between atoms: _660  and  _662
REMARK  272  A    between atoms: _662  and  _663
REMARK  273  A    between atoms: _662  and  _665
REMARK  274  A    between atoms: _665  and  _666
REMARK  275  A    between atoms: _666  and  _667
REMARK  276  A    between atoms: _667  and  _668
REMARK  277  A    between atoms: _668  and  _669
REMARK  278  A    between atoms: _673  and  _675
REMARK  279  A    between atoms: _675  and  _676
REMARK  280  A    between atoms: _675  and  _678
REMARK  281  A    between atoms: _678  and  _679
REMARK  282  A    between atoms: _683  and  _684
REMARK  283  A    between atoms: _689  and  _691
REMARK  284  A    between atoms: _691  and  _692
REMARK  285  A    between atoms: _691  and  _694
REMARK  286  A    between atoms: _694  and  _695
REMARK  287  A    between atoms: _698  and  _700
REMARK  288  A    between atoms: _700  and  _701
REMARK  289  A    between atoms: _700  and  _703
REMARK  290  A    between atoms: _703  and  _704
REMARK  291  A    between atoms: _714  and  _716
REMARK  292  A    between atoms: _716  and  _717
REMARK  293  A    between atoms: _716  and  _719
REMARK  294  A    between atoms: _719  and  _720
REMARK                            x       y       z     vdW  Elec       q    Type
REMARK                         _______ _______ _______ _____ _____    ______ ____
ROOT
ATOM      1  CA  PHE A   2      37.702  13.248 -13.224  0.00  0.00    +0.153 C 
ENDROOT
BRANCH   1   4
ATOM      2  C   ASP A   1      38.834  11.775 -14.796  0.00  0.00    +0.239 C 
ATOM      3  O   ASP A   1      38.516  10.773 -14.155  0.00  0.00    -0.274 OA
ATOM      4  N   PHE A   2      38.491  13.003 -14.426  0.00  0.00    -0.297 N 
ATOM      5  H   PHE A   2      38.792  13.811 -15.008  0.00  0.00    +0.150 HD
BRANCH   2   6
ATOM      6  CA  ASP A   1      39.634  11.664 -16.094  0.00  0.00    +0.156 C 
BRANCH   6   7
ATOM      7  N   ASP A   1      39.177  12.580 -17.157  0.00  0.00    -0.238 NA
ATOM      8  H   ASP A   1      39.871  13.208 -17.610  0.00  0.00    +0.142 HD
ENDBRANCH   6   7
BRANCH   6   9
ATOM      9  CB  ASP A   1      41.105  11.903 -15.790  0.00  0.00    +0.140 C 
BRANCH   9  10
ATOM     10  CG  ASP A   1      41.992  11.536 -16.936  0.00  0.00    +0.367 C 
ATOM     11  OD2 ASP A   1      43.111  12.074 -17.057  0.00  0.00    -0.246 OA
ATOM     12  OD1 ASP A   1      41.548  10.694 -17.735  0.00  0.00    -0.246 OA
ENDBRANCH   9  10
ENDBRANCH   6   9
ENDBRANCH   2   6
ENDBRANCH   1   4
BRANCH   1  13
ATOM     13  C   PHE A   2      36.260  12.809 -13.399  0.00  0.00    +0.241 C 
ATOM     14  O   PHE A   2      35.715  12.215 -12.486  0.00  0.00    -0.273 OA
ATOM     15  N   ALA A   3      35.662  13.083 -14.567  0.00  0.00    -0.298 N 
ATOM     16  H   ALA A   3      36.185  13.635 -15.276  0.00  0.00    +0.150 HD
BRANCH  15  17
ATOM     17  CA  ALA A   3      34.297  12.637 -14.889  0.00  0.00    +0.137 C 
ATOM     18  CB  ALA A   3      33.864  13.175 -16.262  0.00  0.00    +0.030 C 
BRANCH  17  19
ATOM     19  C   ALA A   3      34.176  11.109 -14.859  0.00  0.00    +0.227 C 
ATOM     20  O   ALA A   3      33.162  10.555 -14.415  0.00  0.00    -0.286 OA
ENDBRANCH  17  19
ENDBRANCH  15  17
ENDBRANCH   1  13
BRANCH   1  21
ATOM     21  CB  PHE A   2      37.809  14.729 -12.793  0.00  0.00    +0.055 C 
BRANCH  21  22
ATOM     22  CG  PHE A   2      39.188  15.106 -12.311  0.00  0.00    -0.020 A 
ATOM     23  CD2 PHE A   2      39.627  14.705 -11.069  0.00  0.00    -0.004 A 
ATOM     24  CE2 PHE A   2      40.878  15.038 -10.635  0.00  0.00    -0.000 A 
ATOM     25  CZ  PHE A   2      41.723  15.777 -11.445  0.00  0.00    -0.000 A 
ATOM     26  CE1 PHE A   2      41.296  16.180 -12.687  0.00  0.00    -0.000 A 
ATOM     27  CD1 PHE A   2      40.051  15.851 -13.112  0.00  0.00    -0.004 A 
ENDBRANCH  21  22
ENDBRANCH   1  21
TORSDOF 10
REMARK  Name = ../refined-set-2016/3ipq/3ipq_pocket.pdb
REMARK  294 active torsions:
REMARK  status: ('A' for Active; 'I' for Inactive)
REMARK    1  A    between atoms: _1  and  _3
REMARK    2  A    between atoms: _3  and  _4
REMARK    3  A    between atoms: _3  and  _6
REMARK    4  A    between atoms: _6  and  _7
REMARK    5  A    between atoms: _7  and  _8
REMARK    6  A    between atoms: _13  and  _15
REMARK    7  A    between atoms: _15  and  _16
REMARK    8  A    between atoms: _15  and  _18
REMARK    9  A    between atoms: _18  and  _19
REMARK   10  A    between atoms: _19  and  _20
REMARK   11  A    between atoms: _20  and  _21
REMARK   12  A    between atoms: _30  and  _32
REMARK   13  A    between atoms: _32  and  _33
REMARK   14  A    between atoms: _32  and  _35
REMARK   15  A    between atoms: _35  and  _36
REMARK   16  A    between atoms: _42  and  _44
REMARK   17  A    between atoms: _44  and  _45
REMARK   18  A    between atoms: _48  and  _50
REMARK   19  A    between atoms: _50  and  _51
REMARK   20  A    between atoms: _50  and  _53
REMARK   21  A    between atoms: _53  and  _54
REMARK   22  A    between atoms: _59  and  _61
REMARK   23  A    between atoms: _61  and  _62
REMARK   24  A    between atoms: _61  and  _64
REMARK   25  A    between atoms: _64  and  _65
REMARK   26  A    between atoms: _71  and  _73
REMARK   27  A    between atoms: _73  and  _74
REMARK   28  A    between atoms: _73  and  _76
REMARK   29  A    between atoms: _76  and  _77
REMARK   30  A    between atoms: _80  and  _82
REMARK   31  A    between atoms: _82  and  _83
REMARK   32  A    between atoms: _82  and  _85
REMARK   33  A    between atoms: _85  and  _86
REMARK   34  A    between atoms: _86  and  _87
REMARK   35  A    between atoms: _90  and  _92
REMARK   36  A    between atoms: _92  and  _93
REMARK   37  A    between atoms: _92  and  _95
REMARK   38  A    between atoms: _95  and  _96
REMARK   39  A    between atoms: _99  and  _101
REMARK   40  A    between atoms: _101  and  _102
REMARK   41  A    between atoms: _105  and  _107
REMARK   42  A    between atoms: _107  and  _108
REMARK   43  A    between atoms: _107  and  _110
REMARK   44  A    between atoms: _110  and  _111
REMARK   45  A    between atoms: _114  and  _116
REMARK   46  A    between atoms: _116  and  _117
REMARK   47  A    between atoms: _116  and  _119
REMARK   48  A    between atoms: _122  and  _124
REMARK   49  A    between atoms: _124  and  _125
REMARK   50  A    between atoms: _124  and  _127
REMARK   51  A    between atoms: _127  and  _128
REMARK   52  A    between atoms: _130  and  _132
REMARK   53  A    between atoms: _132  and  _133
REMARK   54  A    between atoms: _132  and  _135
REMARK   55  A    between atoms: _138  and  _140
REMARK   56  A    between atoms: _140  and  _141
REMARK   57  A    between atoms: _140  and  _143
REMARK   58  A    between atoms: _143  and  _144
REMARK   59  A    between atoms: _144  and  _145
REMARK   60  A    between atoms: _150  and  _152
REMARK   61  A    between atoms: _152  and  _153
REMARK   62  A    between atoms: _152  and  _155
REMARK   63  A    between atoms: _155  and  _156
REMARK   64  A    between atoms: _156  and  _157
REMARK   65  A    between atoms: _160  and  _162
REMARK   66  A    between atoms: _162  and  _163
REMARK   67  A    between atoms: _162  and  _165
REMARK   68  A    between atoms: _165  and  _166
REMARK   69  A    between atoms: _169  and  _171
REMARK   70  A    between atoms: _171  and  _172
REMARK   71  A    between atoms: _175  and  _177
REMARK   72  A    between atoms: _177  and  _178
REMARK   73  A    between atoms: _177  and  _180
REMARK   74  A    between atoms: _180  and  _181
REMARK   75  A    between atoms: _184  and  _186
REMARK   76  A    between atoms: _186  and  _187
REMARK   77  A    between atoms: _186  and  _189
REMARK   78  A    between atoms: _189  and  _190
REMARK   79  A    between atoms: _190  and  _191
REMARK   80  A    between atoms: _194  and  _196
REMARK   81  A    between atoms: _196  and  _197
REMARK   82  A    between atoms: _196  and  _199
REMARK   83  A    between atoms: _202  and  _204
REMARK   84  A    between atoms: _204  and  _205
REMARK   85  A    between atoms: _204  and  _207
REMARK   86  A    between atoms: _207  and  _208
REMARK   87  A    between atoms: _208  and  _209
REMARK   88  A    between atoms: _211  and  _213
REMARK   89  A    between atoms: _213  and  _214
REMARK   90  A    between atoms: _213  and  _216
REMARK   91  A    between atoms: _216  and  _217
REMARK   92  A    between atoms: _220  and  _222
REMARK   93  A    between atoms: _222  and  _223
REMARK   94  A    between atoms: _222  and  _225
REMARK   95  A    between atoms: _225  and  _226
REMARK   96  A    between atoms: _229  and  _231
REMARK   97  A    between atoms: _231  and  _232
REMARK   98  A    between atoms: _231  and  _234
REMARK   99  A    between atoms: _234  and  _235
REMARK  100  A    between atoms: _235  and  _236
REMARK  101  A    between atoms: _239  and  _241
REMARK  102  A    between atoms: _241  and  _242
REMARK  103  A    between atoms: _241  and  _244
REMARK  104  A    between atoms: _244  and  _245
REMARK  105  A    between atoms: _248  and  _250
REMARK  106  A    between atoms: _250  and  _251
REMARK  107  A    between atoms: _250  and  _253
REMARK  108  A    between atoms: _253  and  _254
REMARK  109  A    between atoms: _256  and  _258
REMARK  110  A    between atoms: _258  and  _259
REMARK  111  A    between atoms: _258  and  _261
REMARK  112  A    between atoms: _261  and  _262
REMARK  113  A    between atoms: _262  and  _263
REMARK  114  A    between atoms: _263  and  _264
REMARK  115  A    between atoms: _273  and  _275
REMARK  116  A    between atoms: _275  and  _276
REMARK  117  A    between atoms: _275  and  _278
REMARK  118  A    between atoms: _278  and  _279
REMARK  119  A    between atoms: _279  and  _280
REMARK  120  A    between atoms: _280  and  _281
REMARK  121  A    between atoms: _290  and  _292
REMARK  122  A    between atoms: _292  and  _293
REMARK  123  A    between atoms: _292  and  _295
REMARK  124  A    between atoms: _295  and  _296
REMARK  125  A    between atoms: _299  and  _301
REMARK  126  A    between atoms: _301  and  _302
REMARK  127  A    between atoms: _301  and  _304
REMARK  128  A    between atoms: _304  and  _305
REMARK  129  A    between atoms: _308  and  _310
REMARK  130  A    between atoms: _310  and  _311
REMARK  131  A    between atoms: _310  and  _313
REMARK  132  A    between atoms: _313  and  _314
REMARK  133  A    between atoms: _320  and  _322
REMARK  134  A    between atoms: _322  and  _323
REMARK  135  A    between atoms: _322  and  _325
REMARK  136  A    between atoms: _325  and  _326
REMARK  137  A    between atoms: _329  and  _331
REMARK  138  A    between atoms: _331  and  _332
REMARK  139  A    between atoms: _331  and  _334
REMARK  140  A    between atoms: _334  and  _335
REMARK  141  A    between atoms: _335  and  _336
REMARK  142  A    between atoms: _336  and  _337
REMARK  143  A    between atoms: _337  and  _338
REMARK  144  A    between atoms: _342  and  _344
REMARK  145  A    between atoms: _344  and  _345
REMARK  146  A    between atoms: _344  and  _347
REMARK  147  A    between atoms: _347  and  _348
REMARK  148  A    between atoms: _351  and  _353
REMARK  149  A    between atoms: _353  and  _354
REMARK  150  A    between atoms: _353  and  _356
REMARK  151  A    between atoms: _356  and  _357
REMARK  152  A    between atoms: _363  and  _365
REMARK  153  A    between atoms: _365  and  _366
REMARK  154  A    between atoms: _365  and  _368
REMARK  155  A    between atoms: _368  and  _369
REMARK  156  A    between atoms: _374  and  _375
REMARK  157  A    between atoms: _377  and  _379
REMARK  158  A    between atoms: _379  and  _380
REMARK  159  A    between atoms: _379  and  _382
REMARK  160  A    between atoms: _382  and  _383
REMARK  161  A    between atoms: _388  and  _390
REMARK  162  A    between atoms: _390  and  _391
REMARK  163  A    between atoms: _390  and  _393
REMARK  164  A    between atoms: _393  and  _394
REMARK  165  A    between atoms: _394  and  _395
REMARK  166  A    between atoms: _395  and  _396
REMARK  167  A    between atoms: _405  and  _407
REMARK  168  A    between atoms: _407  and  _408
REMARK  169  A    between atoms: _407  and  _410
REMARK  170  A    between atoms: _410  and  _411
REMARK  171  A    between atoms: _414  and  _416
REMARK  172  A    between atoms: _416  and  _417
REMARK  173  A    between atoms: _416  and  _419
REMARK  174  A    between atoms: _419  and  _420
REMARK  175  A    between atoms: _426  and  _428
REMARK  176  A    between atoms: _428  and  _429
REMARK  177  A    between atoms: _432  and  _434
REMARK  178  A    between atoms: _434  and  _435
REMARK  179  A    between atoms: _438  and  _440
REMARK  180  A    between atoms: _440  and  _441
REMARK  181  A    between atoms: _443  and  _445
REMARK  182  A    between atoms: _445  and  _446
REMARK  183  A    between atoms: _445  and  _448
REMARK  184  A    between atoms: _448  and  _449
REMARK  185  A    between atoms: _452  and  _454
REMARK  186  A    between atoms: _454  and  _455
REMARK  187  A    between atoms: _454  and  _457
REMARK  188  A    between atoms: _457  and  _458
REMARK  189  A    between atoms: _458  and  _459
REMARK  190  A    between atoms: _464  and  _466
REMARK  191  A    between atoms: _466  and  _467
REMARK  192  A    between atoms: _466  and  _469
REMARK  193  A    between atoms: _472  and  _474
REMARK  194  A    between atoms: _474  and  _475
REMARK  195  A    between atoms: _474  and  _477
REMARK  196  A    between atoms: _477  and  _478
REMARK  197  A    between atoms: _478  and  _479
REMARK  198  A    between atoms: _482  and  _484
REMARK  199  A    between atoms: _484  and  _485
REMARK  200  A    between atoms: _484  and  _487
REMARK  201  A    between atoms: _487  and  _488
REMARK  202  A    between atoms: _494  and  _496
REMARK  203  A    between atoms: _496  and  _497
REMARK  204  A    between atoms: _496  and  _499
REMARK  205  A    between atoms: _499  and  _500
REMARK  206  A    between atoms: _503  and  _505
REMARK  207  A    between atoms: _505  and  _506
REMARK  208  A    between atoms: _505  and  _508
REMARK  209  A    between atoms: _508  and  _509
REMARK  210  A    between atoms: _515  and  _516
REMARK  211  A    between atoms: _521  and  _523
REMARK  212  A    between atoms: _523  and  _524
REMARK  213  A    between atoms: _523  and  _526
REMARK  214  A    between atoms: _526  and  _527
REMARK  215  A    between atoms: _530  and  _532
REMARK  216  A    between atoms: _532  and  _533
REMARK  217  A    between atoms: _532  and  _535
REMARK  218  A    between atoms: _535  and  _536
REMARK  219  A    between atoms: _542  and  _544
REMARK  220  A    between atoms: _544  and  _545
REMARK  221  A    between atoms: _544  and  _547
REMARK  222  A    between atoms: _547  and  _548
REMARK  223  A    between atoms: _548  and  _549
REMARK  224  A    between atoms: _552  and  _554
REMARK  225  A    between atoms: _554  and  _555
REMARK  226  A    between atoms: _554  and  _557
REMARK  227  A    between atoms: _557  and  _558
REMARK  228  A    between atoms: _560  and  _562
REMARK  229  A    between atoms: _562  and  _563
REMARK  230  A    between atoms: _562  and  _565
REMARK  231  A    between atoms: _565  and  _566
REMARK  232  A    between atoms: _569  and  _571
REMARK  233  A    between atoms: _571  and  _572
REMARK  234  A    between atoms: _571  and  _574
REMARK  235  A    between atoms: _577  and  _579
REMARK  236  A    between atoms: _579  and  _580
REMARK  237  A    between atoms: _579  and  _582
REMARK  238  A    between atoms: _582  and  _583
REMARK  239  A    between atoms: _588  and  _590
REMARK  240  A    between atoms: _590  and  _591
REMARK  241  A    between atoms: _590  and  _593
REMARK  242  A    between atoms: _593  and  _594
REMARK  243  A    between atoms: _596  and  _598
REMARK  244  A    between atoms: _598  and  _599
REMARK  245  A    between atoms: _598  and  _601
REMARK  246  A    between atoms: _601  and  _602
REMARK  247  A    between atoms: _602  and  _603
REMARK  248  A    between atoms: _606  and  _608
REMARK  249  A    between atoms: _608  and  _609
REMARK  250  A    between atoms: _608  and  _611
REMARK  251  A    between atoms: _611  and  _612
REMARK  252  A    between atoms: _612  and  _613
REMARK  253  A    between atoms: _618  and  _620
REMARK  254  A    between atoms: _620  and  _621
REMARK  255  A    between atoms: _620  and  _623
REMARK  256  A    between atoms: _626  and  _628
REMARK  257  A    between atoms: _628  and  _629
REMARK  258  A    between atoms: _628  and  _631
REMARK  259  A    between atoms: _631  and  _632
REMARK  260  A    between atoms: _638  and  _640
REMARK  261  A    between atoms: _640  and  _641
REMARK  262  A    between atoms: _640  and  _643
REMARK  263  A    between atoms: _643  and  _644
REMARK  264  A    between atoms: _647  and  _649
REMARK  265  A    between atoms: _649  and  _650
REMARK  266  A    between atoms: _649  and  _652
REMARK  267  A    between atoms: _652  and  _653
REMARK  268  A    between atoms: _653  and  _654
REMARK  269  A    between atoms: _654  and  _655
REMARK  270  A    between atoms: _655  and  _656
REMARK  271  A    between atoms: _660  and  _662
REMARK  272  A    between atoms: _662  and  _663
REMARK  273  A    between atoms: _662  and  _665
REMARK  274  A    between atoms: _665  and  _666
REMARK  275  A    between atoms: _666  and  _667
REMARK  276  A    between atoms: _667  and  _668
REMARK  277  A    between atoms: _668  and  _669
REMARK  278  A    between atoms: _673  and  _675
REMARK  279  A    between atoms: _675  and  _676
REMARK  280  A    between atoms: _675  and  _678
REMARK  281  A    between atoms: _678  and  _679
REMARK  282  A    between atoms: _683  and  _684
REMARK  283  A    between atoms: _689  and  _691
REMARK  284  A    between atoms: _691  and  _692
REMARK  285  A    between atoms: _691  and  _694
REMARK  286  A    between atoms: _694  and  _695
REMARK  287  A    between atoms: _698  and  _700
REMARK  288  A    between atoms: _700  and  _701
REMARK  289  A    between atoms: _700  and  _703
REMARK  290  A    between atoms: _703  and  _704
REMARK  291  A    between atoms: _714  and  _716
REMARK  292  A    between atoms: _716  and  _717
REMARK  293  A    between atoms: _716  and  _719
REMARK  294  A    between atoms: _719  and  _720
REMARK                            x       y       z     vdW  Elec       q    Type
REMARK                         _______ _______ _______ _____ _____    ______ ____
ROOT
ATOM      1  CA  PHE A   7      32.201  20.109  -9.307  0.00  0.00    +0.153 C 
ENDROOT
BRANCH   1   2
ATOM      2  C   PHE A   7      33.442  20.334 -10.120  0.00  0.00    +0.241 C 
ATOM      3  O   PHE A   7      34.208  21.249  -9.845  0.00  0.00    -0.273 OA
ATOM      4  N   ILE A   8      33.622  19.483 -11.143  0.00  0.00    -0.297 N 
ATOM      5  H   ILE A   8      32.893  18.766 -11.332  0.00  0.00    +0.150 HD
BRANCH   4   6
ATOM      6  CA  ILE A   8      34.802  19.526 -11.999  0.00  0.00    +0.149 C 
BRANCH   6   7
ATOM      7  C   ILE A   8      34.995  20.893 -12.645  0.00  0.00    +0.241 C 
ATOM      8  O   ILE A   8      36.095  21.408 -12.643  0.00  0.00    -0.273 OA
ATOM      9  N   ASN A   9      33.940  21.473 -13.211  0.00  0.00    -0.297 N 
ATOM     10  H   ASN A   9      32.989  21.079 -13.065  0.00  0.00    +0.150 HD
BRANCH   9  11
ATOM     11  CA  ASN A   9      34.120  22.669 -14.041  0.00  0.00    +0.158 C 
BRANCH  11  12
ATOM     12  C   ASN A   9      34.538  23.949 -13.292  0.00  0.00    +0.244 C 
ATOM     13  N   PRO A  10      33.872  24.255 -12.161  0.00  0.00    -0.272 N 
ATOM     14  CA  PRO A  10      34.396  25.329 -11.312  0.00  0.00    +0.152 C 
ATOM     15  CB  PRO A  10      33.414  25.371 -10.137  0.00  0.00    +0.031 C 
ATOM     16  CG  PRO A  10      32.148  24.685 -10.645  0.00  0.00    +0.024 C 
ATOM     17  CD  PRO A  10      32.606  23.694 -11.643  0.00  0.00    +0.094 C 
ATOM     18  O   ASN A   9      35.454  24.662 -13.742  0.00  0.00    -0.273 OA
BRANCH  14  19
ATOM     19  C   PRO A  10      35.851  25.132 -10.814  0.00  0.00    +0.241 C 
ATOM     20  N   ILE A  11      36.289  23.902 -10.551  0.00  0.00    -0.297 N 
ATOM     21  H   ILE A  11      35.653  23.089 -10.675  0.00  0.00    +0.150 HD
ATOM     22  O   PRO A  10      36.583  26.118 -10.707  0.00  0.00    -0.273 OA
BRANCH  20  23
ATOM     23  CA  ILE A  11      37.676  23.687 -10.083  0.00  0.00    +0.149 C 
BRANCH  23  24
ATOM     24  C   ILE A  11      38.652  23.979 -11.194  0.00  0.00    +0.241 C 
ATOM     25  O   ILE A  11      39.685  24.692 -10.993  0.00  0.00    -0.273 OA
ATOM     26  N   PHE A  12      38.323  23.522 -12.403  0.00  0.00    -0.297 N 
ATOM     27  H   PHE A  12      37.497  22.903 -12.526  0.00  0.00    +0.150 HD
BRANCH  26  28
ATOM     28  CA  PHE A  12      39.159  23.913 -13.579  0.00  0.00    +0.153 C 
BRANCH  28  29
ATOM     29  C   PHE A  12      39.129  25.413 -13.878  0.00  0.00    +0.241 C 
ATOM     30  N   GLU A  13      37.972  26.040 -13.753  0.00  0.00    -0.298 N 
ATOM     31  H   GLU A  13      37.124  25.500 -13.485  0.00  0.00    +0.150 HD
ATOM     32  O   PHE A  12      40.150  25.993 -14.198  0.00  0.00    -0.273 OA
BRANCH  30  33
ATOM     33  CA  GLU A  13      37.863  27.482 -13.985  0.00  0.00    +0.137 C 
BRANCH  33  34
ATOM     34  C   GLU A  13      38.682  28.310 -12.972  0.00  0.00    +0.227 C 
ATOM     35  O   GLU A  13      39.366  29.252 -13.346  0.00  0.00    -0.286 OA
ENDBRANCH  33  34
BRANCH  33  36
ATOM     36  CB  GLU A  13      36.395  27.887 -13.980  0.00  0.00    +0.039 C 
BRANCH  36  37
ATOM     37  CG  GLU A  13      36.110  29.413 -14.016  0.00  0.00    +0.116 C 
BRANCH  37  38
ATOM     38  CD  GLU A  13      36.823  30.204 -15.132  0.00  0.00    +0.365 C 
ATOM     39  OE2 GLU A  13      36.918  31.463 -14.967  0.00  0.00    -0.246 OA
ATOM     40  OE1 GLU A  13      37.272  29.595 -16.150  0.00  0.00    -0.246 OA
ENDBRANCH  37  38
ENDBRANCH  36  37
ENDBRANCH  33  36
ENDBRANCH  30  33
ENDBRANCH  28  29
BRANCH  28  41
ATOM     41  CB  PHE A  12      38.833  23.065 -14.841  0.00  0.00    +0.055 C 
BRANCH  41  42
ATOM     42  CG  PHE A  12      39.580  21.779 -14.880  0.00  0.00    -0.020 A 
ATOM     43  CD2 PHE A  12      39.076  20.659 -14.262  0.00  0.00    -0.004 A 
ATOM     44  CE2 PHE A  12      39.783  19.466 -14.264  0.00  0.00    -0.000 A 
ATOM     45  CZ  PHE A  12      41.014  19.384 -14.912  0.00  0.00    -0.000 A 
ATOM     46  CE1 PHE A  12      41.526  20.512 -15.553  0.00  0.00    -0.000 A 
ATOM     47  CD1 PHE A  12      40.810  21.699 -15.517  0.00  0.00    -0.004 A 
ENDBRANCH  41  42
ENDBRANCH  28  41
ENDBRANCH  26  28
ENDBRANCH  23  24
BRANCH  23  48
ATOM     48  CB  ILE A  11      37.874  22.301  -9.442  0.00  0.00    +0.027 C 
ATOM     49  CG2 ILE A  11      39.346  22.069  -9.104  0.00  0.00    +0.002 C 
BRANCH  48  50
ATOM     50  CG1 ILE A  11      37.024  22.222  -8.182  0.00  0.00    +0.002 C 
ATOM     51  CD1 ILE A  11      36.768  20.841  -7.673  0.00  0.00    +0.000 C 
ENDBRANCH  48  50
ENDBRANCH  23  48
ENDBRANCH  20  23
ENDBRANCH  14  19
ENDBRANCH  11  12
BRANCH  11  52
ATOM     52  CB  ASN A   9      32.885  22.925 -14.905  0.00  0.00    +0.114 C 
BRANCH  52  53
ATOM     53  CG  ASN A   9      32.753  21.924 -16.041  0.00  0.00    +0.222 C 
ATOM     54  OD1 ASN A   9      33.714  21.222 -16.397  0.00  0.00    -0.275 OA
ATOM     55  ND2 ASN A   9      31.549  21.853 -16.620  0.00  0.00    -0.329 N 
ATOM     56 HD21 ASN A   9      30.775  22.462 -16.286  0.00  0.00    +0.145 HD
ATOM     57 HD22 ASN A   9      31.387  21.189 -17.404  0.00  0.00    +0.145 HD
ENDBRANCH  52  53
ENDBRANCH  11  52
ENDBRANCH   9  11
ENDBRANCH   6   7
BRANCH   6  58
ATOM     58  CB  ILE A   8      34.771  18.438 -13.125  0.00  0.00    +0.027 C 
ATOM     59  CG2 ILE A   8      35.972  18.624 -14.100  0.00  0.00    +0.002 C 
BRANCH  58  60
ATOM     60  CG1 ILE A   8      34.781  17.019 -12.527  0.00  0.00    +0.002 C 
ATOM     61  CD1 ILE A   8      34.161  15.941 -13.461  0.00  0.00    +0.000 C 
ENDBRANCH  58  60
ENDBRANCH   6  58
ENDBRANCH   4   6
ENDBRANCH   1   2
BRANCH   1  64
ATOM     62  C   GLU A   6      30.268  21.134 -10.507  0.00  0.00    +0.241 C 
ATOM     63  O   GLU A   6      30.394  22.231 -10.003  0.00  0.00    -0.273 OA
ATOM     64  N   PHE A   7      31.050  20.093 -10.219  0.00  0.00    -0.297 N 
ATOM     65  H   PHE A   7      30.825  19.189 -10.681  0.00  0.00    +0.150 HD
BRANCH  62  66
ATOM     66  CA  GLU A   6      29.112  20.882 -11.513  0.00  0.00    +0.149 C 
BRANCH  66  68
ATOM     67  C   VAL A   5      30.316  19.529 -13.185  0.00  0.00    +0.241 C 
ATOM     68  N   GLU A   6      29.307  19.686 -12.325  0.00  0.00    -0.297 N 
ATOM     69  H   GLU A   6      28.620  18.911 -12.228  0.00  0.00    +0.150 HD
ATOM     70  O   VAL A   5      31.187  20.398 -13.401  0.00  0.00    -0.273 OA
BRANCH  67  71
ATOM     71  CA  VAL A   5      30.359  18.178 -13.906  0.00  0.00    +0.149 C 
BRANCH  71  74
ATOM     72  C   GLN A   4      30.526  16.811 -11.868  0.00  0.00    +0.241 C 
ATOM     73  O   GLN A   4      31.518  17.389 -11.431  0.00  0.00    -0.273 OA
ATOM     74  N   VAL A   5      29.934  17.110 -13.024  0.00  0.00    -0.297 N 
ATOM     75  H   VAL A   5      29.113  16.539 -13.312  0.00  0.00    +0.150 HD
BRANCH  72  76
ATOM     76  CA  GLN A   4      29.891  15.653 -11.125  0.00  0.00    +0.149 C 
BRANCH  76  78
ATOM     77  C   LEU A   3      31.690  14.043 -10.918  0.00  0.00    +0.241 C 
ATOM     78  N   GLN A   4      30.878  14.922 -10.338  0.00  0.00    -0.297 N 
ATOM     79  H   GLN A   4      30.947  15.090  -9.314  0.00  0.00    +0.150 HD
ATOM     80  O   LEU A   3      31.677  13.826 -12.127  0.00  0.00    -0.273 OA
BRANCH  77  81
ATOM     81  CA  LEU A   3      32.624  13.262 -10.021  0.00  0.00    +0.149 C 
BRANCH  81  84
ATOM     82  C   GLY A   2      31.825  10.983 -10.483  0.00  0.00    +0.243 C 
ATOM     83  O   GLY A   2      30.768  11.165  -9.858  0.00  0.00    -0.273 OA
ATOM     84  N   LEU A   3      32.763  11.924 -10.609  0.00  0.00    -0.297 N 
ATOM     85  H   LEU A   3      33.626  11.701 -11.145  0.00  0.00    +0.150 HD
BRANCH  82  86
ATOM     86  CA  GLY A   2      32.119   9.639 -11.154  0.00  0.00    +0.176 C 
BRANCH  86  89
ATOM     87  C   ALA A   1      34.425   8.825 -10.956  0.00  0.00    +0.238 C 
ATOM     88  O   ALA A   1      34.229   8.400  -9.819  0.00  0.00    -0.274 OA
ATOM     89  N   GLY A   2      33.484   9.444 -11.663  0.00  0.00    -0.296 N 
ATOM     90  H   GLY A   2      33.722   9.803 -12.610  0.00  0.00    +0.150 HD
BRANCH  87  91
ATOM     91  CA  ALA A   1      35.809   8.703 -11.582  0.00  0.00    +0.145 C 
ATOM     92  CB  ALA A   1      36.826   9.473 -10.764  0.00  0.00    +0.028 C 
BRANCH  91  93
ATOM     93  N   ALA A   1      35.815   9.166 -12.959  0.00  0.00    -0.238 NA
ATOM     94  H   ALA A   1      36.177  10.115 -13.182  0.00  0.00    +0.142 HD
ENDBRANCH  91  93
ENDBRANCH  87  91
ENDBRANCH  86  89
ENDBRANCH  82  86
ENDBRANCH  81  84
BRANCH  81  95
ATOM     95  CB  LEU A   3      34.008  13.944  -9.897  0.00  0.00    +0.029 C 
BRANCH  95  96
ATOM     96  CG  LEU A   3      35.018  13.127  -9.075  0.00  0.00    +0.002 C 
ATOM     97  CD2 LEU A   3      34.421  12.801  -7.715  0.00  0.00    +0.000 C 
ATOM     98  CD1 LEU A   3      36.358  13.784  -8.931  0.00  0.00    +0.000 C 
ENDBRANCH  95  96
ENDBRANCH  81  95
ENDBRANCH  77  81
ENDBRANCH  76  78
BRANCH  76  99
ATOM     99  CB  GLN A   4      28.659  16.106 -10.316  0.00  0.00    +0.039 C 
BRANCH  99 100
ATOM    100  CG  GLN A   4      28.830  16.198  -8.847  0.00  0.00    +0.087 C 
BRANCH 100 101
ATOM    101  CD  GLN A   4      27.730  16.958  -8.146  0.00  0.00    +0.219 C 
ATOM    102  NE2 GLN A   4      28.122  17.884  -7.294  0.00  0.00    -0.329 N 
ATOM    103 HE21 GLN A   4      27.417  18.434  -6.763  0.00  0.00    +0.145 HD
ATOM    104 HE22 GLN A   4      29.136  18.064  -7.152  0.00  0.00    +0.145 HD
ATOM    105  OE1 GLN A   4      26.546  16.707  -8.349  0.00  0.00    -0.275 OA
ENDBRANCH 100 101
ENDBRANCH  99 100
ENDBRANCH  76  99
ENDBRANCH  72  76
ENDBRANCH  71  74
BRANCH  71 106
ATOM    106  CB  VAL A   5      29.471  18.169 -15.213  0.00  0.00    +0.027 C 
ATOM    107  CG2 VAL A   5      28.354  19.184 -15.156  0.00  0.00    +0.002 C 
ATOM    108  CG1 VAL A   5      30.327  18.414 -16.408  0.00  0.00    +0.002 C 
ENDBRANCH  71 106
ENDBRANCH  67  71
ENDBRANCH  66  68
BRANCH  66 109
ATOM    109  CB  GLU A   6      27.799  20.779 -10.739  0.00  0.00    +0.041 C 
BRANCH 109 110
ATOM    110  CG  GLU A   6      26.551  20.733 -11.601  0.00  0.00    +0.116 C 
BRANCH 110 111
ATOM    111  CD  GLU A   6      26.149  19.333 -12.074  0.00  0.00    +0.365 C 
ATOM    112  OE2 GLU A   6      26.929  18.363 -11.941  0.00  0.00    -0.246 OA
ATOM    113  OE1 GLU A   6      25.025  19.214 -12.616  0.00  0.00    -0.246 OA
ENDBRANCH 110 111
ENDBRANCH 109 110
ENDBRANCH  66 109
ENDBRANCH  62  66
ENDBRANCH   1  64
BRANCH   1 114
ATOM    114  CB  PHE A   7      32.282  18.744  -8.621  0.00  0.00    +0.055 C 
BRANCH 114 115
ATOM    115  CG  PHE A   7      33.343  18.603  -7.567  0.00  0.00    -0.020 A 
ATOM    116  CD2 PHE A   7      33.365  19.422  -6.464  0.00  0.00    -0.004 A 
ATOM    117  CE2 PHE A   7      34.317  19.241  -5.463  0.00  0.00    -0.000 A 
ATOM    118  CZ  PHE A   7      35.206  18.248  -5.543  0.00  0.00    -0.000 A 
ATOM    119  CE1 PHE A   7      35.184  17.370  -6.634  0.00  0.00    -0.000 A 
ATOM    120  CD1 PHE A   7      34.260  17.552  -7.636  0.00  0.00    -0.004 A 
ENDBRANCH 114 115
ENDBRANCH   1 114
TORSDOF 47
REMARK  Name = ../refined-set-2016/3ipq/3ipq_pocket.pdb
REMARK  294 active torsions:
REMARK  status: ('A' for Active; 'I' for Inactive)
REMARK    1  A    between atoms: _1  and  _3
REMARK    2  A    between atoms: _3  and  _4
REMARK    3  A    between atoms: _3  and  _6
REMARK    4  A    between atoms: _6  and  _7
REMARK    5  A    between atoms: _7  and  _8
REMARK    6  A    between atoms: _13  and  _15
REMARK    7  A    between atoms: _15  and  _16
REMARK    8  A    between atoms: _15  and  _18
REMARK    9  A    between atoms: _18  and  _19
REMARK   10  A    between atoms: _19  and  _20
REMARK   11  A    between atoms: _20  and  _21
REMARK   12  A    between atoms: _30  and  _32
REMARK   13  A    between atoms: _32  and  _33
REMARK   14  A    between atoms: _32  and  _35
REMARK   15  A    between atoms: _35  and  _36
REMARK   16  A    between atoms: _42  and  _44
REMARK   17  A    between atoms: _44  and  _45
REMARK   18  A    between atoms: _48  and  _50
REMARK   19  A    between atoms: _50  and  _51
REMARK   20  A    between atoms: _50  and  _53
REMARK   21  A    between atoms: _53  and  _54
REMARK   22  A    between atoms: _59  and  _61
REMARK   23  A    between atoms: _61  and  _62
REMARK   24  A    between atoms: _61  and  _64
REMARK   25  A    between atoms: _64  and  _65
REMARK   26  A    between atoms: _71  and  _73
REMARK   27  A    between atoms: _73  and  _74
REMARK   28  A    between atoms: _73  and  _76
REMARK   29  A    between atoms: _76  and  _77
REMARK   30  A    between atoms: _80  and  _82
REMARK   31  A    between atoms: _82  and  _83
REMARK   32  A    between atoms: _82  and  _85
REMARK   33  A    between atoms: _85  and  _86
REMARK   34  A    between atoms: _86  and  _87
REMARK   35  A    between atoms: _90  and  _92
REMARK   36  A    between atoms: _92  and  _93
REMARK   37  A    between atoms: _92  and  _95
REMARK   38  A    between atoms: _95  and  _96
REMARK   39  A    between atoms: _99  and  _101
REMARK   40  A    between atoms: _101  and  _102
REMARK   41  A    between atoms: _105  and  _107
REMARK   42  A    between atoms: _107  and  _108
REMARK   43  A    between atoms: _107  and  _110
REMARK   44  A    between atoms: _110  and  _111
REMARK   45  A    between atoms: _114  and  _116
REMARK   46  A    between atoms: _116  and  _117
REMARK   47  A    between atoms: _116  and  _119
REMARK   48  A    between atoms: _122  and  _124
REMARK   49  A    between atoms: _124  and  _125
REMARK   50  A    between atoms: _124  and  _127
REMARK   51  A    between atoms: _127  and  _128
REMARK   52  A    between atoms: _130  and  _132
REMARK   53  A    between atoms: _132  and  _133
REMARK   54  A    between atoms: _132  and  _135
REMARK   55  A    between atoms: _138  and  _140
REMARK   56  A    between atoms: _140  and  _141
REMARK   57  A    between atoms: _140  and  _143
REMARK   58  A    between atoms: _143  and  _144
REMARK   59  A    between atoms: _144  and  _145
REMARK   60  A    between atoms: _150  and  _152
REMARK   61  A    between atoms: _152  and  _153
REMARK   62  A    between atoms: _152  and  _155
REMARK   63  A    between atoms: _155  and  _156
REMARK   64  A    between atoms: _156  and  _157
REMARK   65  A    between atoms: _160  and  _162
REMARK   66  A    between atoms: _162  and  _163
REMARK   67  A    between atoms: _162  and  _165
REMARK   68  A    between atoms: _165  and  _166
REMARK   69  A    between atoms: _169  and  _171
REMARK   70  A    between atoms: _171  and  _172
REMARK   71  A    between atoms: _175  and  _177
REMARK   72  A    between atoms: _177  and  _178
REMARK   73  A    between atoms: _177  and  _180
REMARK   74  A    between atoms: _180  and  _181
REMARK   75  A    between atoms: _184  and  _186
REMARK   76  A    between atoms: _186  and  _187
REMARK   77  A    between atoms: _186  and  _189
REMARK   78  A    between atoms: _189  and  _190
REMARK   79  A    between atoms: _190  and  _191
REMARK   80  A    between atoms: _194  and  _196
REMARK   81  A    between atoms: _196  and  _197
REMARK   82  A    between atoms: _196  and  _199
REMARK   83  A    between atoms: _202  and  _204
REMARK   84  A    between atoms: _204  and  _205
REMARK   85  A    between atoms: _204  and  _207
REMARK   86  A    between atoms: _207  and  _208
REMARK   87  A    between atoms: _208  and  _209
REMARK   88  A    between atoms: _211  and  _213
REMARK   89  A    between atoms: _213  and  _214
REMARK   90  A    between atoms: _213  and  _216
REMARK   91  A    between atoms: _216  and  _217
REMARK   92  A    between atoms: _220  and  _222
REMARK   93  A    between atoms: _222  and  _223
REMARK   94  A    between atoms: _222  and  _225
REMARK   95  A    between atoms: _225  and  _226
REMARK   96  A    between atoms: _229  and  _231
REMARK   97  A    between atoms: _231  and  _232
REMARK   98  A    between atoms: _231  and  _234
REMARK   99  A    between atoms: _234  and  _235
REMARK  100  A    between atoms: _235  and  _236
REMARK  101  A    between atoms: _239  and  _241
REMARK  102  A    between atoms: _241  and  _242
REMARK  103  A    between atoms: _241  and  _244
REMARK  104  A    between atoms: _244  and  _245
REMARK  105  A    between atoms: _248  and  _250
REMARK  106  A    between atoms: _250  and  _251
REMARK  107  A    between atoms: _250  and  _253
REMARK  108  A    between atoms: _253  and  _254
REMARK  109  A    between atoms: _256  and  _258
REMARK  110  A    between atoms: _258  and  _259
REMARK  111  A    between atoms: _258  and  _261
REMARK  112  A    between atoms: _261  and  _262
REMARK  113  A    between atoms: _262  and  _263
REMARK  114  A    between atoms: _263  and  _264
REMARK  115  A    between atoms: _273  and  _275
REMARK  116  A    between atoms: _275  and  _276
REMARK  117  A    between atoms: _275  and  _278
REMARK  118  A    between atoms: _278  and  _279
REMARK  119  A    between atoms: _279  and  _280
REMARK  120  A    between atoms: _280  and  _281
REMARK  121  A    between atoms: _290  and  _292
REMARK  122  A    between atoms: _292  and  _293
REMARK  123  A    between atoms: _292  and  _295
REMARK  124  A    between atoms: _295  and  _296
REMARK  125  A    between atoms: _299  and  _301
REMARK  126  A    between atoms: _301  and  _302
REMARK  127  A    between atoms: _301  and  _304
REMARK  128  A    between atoms: _304  and  _305
REMARK  129  A    between atoms: _308  and  _310
REMARK  130  A    between atoms: _310  and  _311
REMARK  131  A    between atoms: _310  and  _313
REMARK  132  A    between atoms: _313  and  _314
REMARK  133  A    between atoms: _320  and  _322
REMARK  134  A    between atoms: _322  and  _323
REMARK  135  A    between atoms: _322  and  _325
REMARK  136  A    between atoms: _325  and  _326
REMARK  137  A    between atoms: _329  and  _331
REMARK  138  A    between atoms: _331  and  _332
REMARK  139  A    between atoms: _331  and  _334
REMARK  140  A    between atoms: _334  and  _335
REMARK  141  A    between atoms: _335  and  _336
REMARK  142  A    between atoms: _336  and  _337
REMARK  143  A    between atoms: _337  and  _338
REMARK  144  A    between atoms: _342  and  _344
REMARK  145  A    between atoms: _344  and  _345
REMARK  146  A    between atoms: _344  and  _347
REMARK  147  A    between atoms: _347  and  _348
REMARK  148  A    between atoms: _351  and  _353
REMARK  149  A    between atoms: _353  and  _354
REMARK  150  A    between atoms: _353  and  _356
REMARK  151  A    between atoms: _356  and  _357
REMARK  152  A    between atoms: _363  and  _365
REMARK  153  A    between atoms: _365  and  _366
REMARK  154  A    between atoms: _365  and  _368
REMARK  155  A    between atoms: _368  and  _369
REMARK  156  A    between atoms: _374  and  _375
REMARK  157  A    between atoms: _377  and  _379
REMARK  158  A    between atoms: _379  and  _380
REMARK  159  A    between atoms: _379  and  _382
REMARK  160  A    between atoms: _382  and  _383
REMARK  161  A    between atoms: _388  and  _390
REMARK  162  A    between atoms: _390  and  _391
REMARK  163  A    between atoms: _390  and  _393
REMARK  164  A    between atoms: _393  and  _394
REMARK  165  A    between atoms: _394  and  _395
REMARK  166  A    between atoms: _395  and  _396
REMARK  167  A    between atoms: _405  and  _407
REMARK  168  A    between atoms: _407  and  _408
REMARK  169  A    between atoms: _407  and  _410
REMARK  170  A    between atoms: _410  and  _411
REMARK  171  A    between atoms: _414  and  _416
REMARK  172  A    between atoms: _416  and  _417
REMARK  173  A    between atoms: _416  and  _419
REMARK  174  A    between atoms: _419  and  _420
REMARK  175  A    between atoms: _426  and  _428
REMARK  176  A    between atoms: _428  and  _429
REMARK  177  A    between atoms: _432  and  _434
REMARK  178  A    between atoms: _434  and  _435
REMARK  179  A    between atoms: _438  and  _440
REMARK  180  A    between atoms: _440  and  _441
REMARK  181  A    between atoms: _443  and  _445
REMARK  182  A    between atoms: _445  and  _446
REMARK  183  A    between atoms: _445  and  _448
REMARK  184  A    between atoms: _448  and  _449
REMARK  185  A    between atoms: _452  and  _454
REMARK  186  A    between atoms: _454  and  _455
REMARK  187  A    between atoms: _454  and  _457
REMARK  188  A    between atoms: _457  and  _458
REMARK  189  A    between atoms: _458  and  _459
REMARK  190  A    between atoms: _464  and  _466
REMARK  191  A    between atoms: _466  and  _467
REMARK  192  A    between atoms: _466  and  _469
REMARK  193  A    between atoms: _472  and  _474
REMARK  194  A    between atoms: _474  and  _475
REMARK  195  A    between atoms: _474  and  _477
REMARK  196  A    between atoms: _477  and  _478
REMARK  197  A    between atoms: _478  and  _479
REMARK  198  A    between atoms: _482  and  _484
REMARK  199  A    between atoms: _484  and  _485
REMARK  200  A    between atoms: _484  and  _487
REMARK  201  A    between atoms: _487  and  _488
REMARK  202  A    between atoms: _494  and  _496
REMARK  203  A    between atoms: _496  and  _497
REMARK  204  A    between atoms: _496  and  _499
REMARK  205  A    between atoms: _499  and  _500
REMARK  206  A    between atoms: _503  and  _505
REMARK  207  A    between atoms: _505  and  _506
REMARK  208  A    between atoms: _505  and  _508
REMARK  209  A    between atoms: _508  and  _509
REMARK  210  A    between atoms: _515  and  _516
REMARK  211  A    between atoms: _521  and  _523
REMARK  212  A    between atoms: _523  and  _524
REMARK  213  A    between atoms: _523  and  _526
REMARK  214  A    between atoms: _526  and  _527
REMARK  215  A    between atoms: _530  and  _532
REMARK  216  A    between atoms: _532  and  _533
REMARK  217  A    between atoms: _532  and  _535
REMARK  218  A    between atoms: _535  and  _536
REMARK  219  A    between atoms: _542  and  _544
REMARK  220  A    between atoms: _544  and  _545
REMARK  221  A    between atoms: _544  and  _547
REMARK  222  A    between atoms: _547  and  _548
REMARK  223  A    between atoms: _548  and  _549
REMARK  224  A    between atoms: _552  and  _554
REMARK  225  A    between atoms: _554  and  _555
REMARK  226  A    between atoms: _554  and  _557
REMARK  227  A    between atoms: _557  and  _558
REMARK  228  A    between atoms: _560  and  _562
REMARK  229  A    between atoms: _562  and  _563
REMARK  230  A    between atoms: _562  and  _565
REMARK  231  A    between atoms: _565  and  _566
REMARK  232  A    between atoms: _569  and  _571
REMARK  233  A    between atoms: _571  and  _572
REMARK  234  A    between atoms: _571  and  _574
REMARK  235  A    between atoms: _577  and  _579
REMARK  236  A    between atoms: _579  and  _580
REMARK  237  A    between atoms: _579  and  _582
REMARK  238  A    between atoms: _582  and  _583
REMARK  239  A    between atoms: _588  and  _590
REMARK  240  A    between atoms: _590  and  _591
REMARK  241  A    between atoms: _590  and  _593
REMARK  242  A    between atoms: _593  and  _594
REMARK  243  A    between atoms: _596  and  _598
REMARK  244  A    between atoms: _598  and  _599
REMARK  245  A    between atoms: _598  and  _601
REMARK  246  A    between atoms: _601  and  _602
REMARK  247  A    between atoms: _602  and  _603
REMARK  248  A    between atoms: _606  and  _608
REMARK  249  A    between atoms: _608  and  _609
REMARK  250  A    between atoms: _608  and  _611
REMARK  251  A    between atoms: _611  and  _612
REMARK  252  A    between atoms: _612  and  _613
REMARK  253  A    between atoms: _618  and  _620
REMARK  254  A    between atoms: _620  and  _621
REMARK  255  A    between atoms: _620  and  _623
REMARK  256  A    between atoms: _626  and  _628
REMARK  257  A    between atoms: _628  and  _629
REMARK  258  A    between atoms: _628  and  _631
REMARK  259  A    between atoms: _631  and  _632
REMARK  260  A    between atoms: _638  and  _640
REMARK  261  A    between atoms: _640  and  _641
REMARK  262  A    between atoms: _640  and  _643
REMARK  263  A    between atoms: _643  and  _644
REMARK  264  A    between atoms: _647  and  _649
REMARK  265  A    between atoms: _649  and  _650
REMARK  266  A    between atoms: _649  and  _652
REMARK  267  A    between atoms: _652  and  _653
REMARK  268  A    between atoms: _653  and  _654
REMARK  269  A    between atoms: _654  and  _655
REMARK  270  A    between atoms: _655  and  _656
REMARK  271  A    between atoms: _660  and  _662
REMARK  272  A    between atoms: _662  and  _663
REMARK  273  A    between atoms: _662  and  _665
REMARK  274  A    between atoms: _665  and  _666
REMARK  275  A    between atoms: _666  and  _667
REMARK  276  A    between atoms: _667  and  _668
REMARK  277  A    between atoms: _668  and  _669
REMARK  278  A    between atoms: _673  and  _675
REMARK  279  A    between atoms: _675  and  _676
REMARK  280  A    between atoms: _675  and  _678
REMARK  281  A    between atoms: _678  and  _679
REMARK  282  A    between atoms: _683  and  _684
REMARK  283  A    between atoms: _689  and  _691
REMARK  284  A    between atoms: _691  and  _692
REMARK  285  A    between atoms: _691  and  _694
REMARK  286  A    between atoms: _694  and  _695
REMARK  287  A    between atoms: _698  and  _700
REMARK  288  A    between atoms: _700  and  _701
REMARK  289  A    between atoms: _700  and  _703
REMARK  290  A    between atoms: _703  and  _704
REMARK  291  A    between atoms: _714  and  _716
REMARK  292  A    between atoms: _716  and  _717
REMARK  293  A    between atoms: _716  and  _719
REMARK  294  A    between atoms: _719  and  _720
REMARK                            x       y       z     vdW  Elec       q    Type
REMARK                         _______ _______ _______ _____ _____    ______ ____
ROOT
ATOM      1  CA  SER A   1      42.714  26.733 -11.523  0.00  0.00    +0.163 C 
ENDROOT
BRANCH   1   2
ATOM      2  N   SER A   1      41.338  27.055 -11.253  0.00  0.00    -0.237 NA
ATOM      3  H   SER A   1      40.620  26.307 -11.339  0.00  0.00    +0.142 HD
ENDBRANCH   1   2
BRANCH   1   4
ATOM      4  C   SER A   1      43.284  27.610 -12.669  0.00  0.00    +0.227 C 
ATOM      5  O   SER A   1      44.356  28.153 -12.569  0.00  0.00    -0.287 OA
ENDBRANCH   1   4
BRANCH   1   6
ATOM      6  CB  SER A   1      42.876  25.233 -11.833  0.00  0.00    +0.162 C 
BRANCH   6   7
ATOM      7  OG  SER A   1      42.419  24.438 -10.769  0.00  0.00    -0.380 OA
ATOM      8  H   SER A   1      41.460  24.624 -10.607  0.00  0.00    +0.211 HD
ENDBRANCH   6   7
ENDBRANCH   1   6
TORSDOF 4
REMARK  Name = ../refined-set-2016/3ipq/3ipq_pocket.pdb
REMARK  294 active torsions:
REMARK  status: ('A' for Active; 'I' for Inactive)
REMARK    1  A    between atoms: _1  and  _3
REMARK    2  A    between atoms: _3  and  _4
REMARK    3  A    between atoms: _3  and  _6
REMARK    4  A    between atoms: _6  and  _7
REMARK    5  A    between atoms: _7  and  _8
REMARK    6  A    between atoms: _13  and  _15
REMARK    7  A    between atoms: _15  and  _16
REMARK    8  A    between atoms: _15  and  _18
REMARK    9  A    between atoms: _18  and  _19
REMARK   10  A    between atoms: _19  and  _20
REMARK   11  A    between atoms: _20  and  _21
REMARK   12  A    between atoms: _30  and  _32
REMARK   13  A    between atoms: _32  and  _33
REMARK   14  A    between atoms: _32  and  _35
REMARK   15  A    between atoms: _35  and  _36
REMARK   16  A    between atoms: _42  and  _44
REMARK   17  A    between atoms: _44  and  _45
REMARK   18  A    between atoms: _48  and  _50
REMARK   19  A    between atoms: _50  and  _51
REMARK   20  A    between atoms: _50  and  _53
REMARK   21  A    between atoms: _53  and  _54
REMARK   22  A    between atoms: _59  and  _61
REMARK   23  A    between atoms: _61  and  _62
REMARK   24  A    between atoms: _61  and  _64
REMARK   25  A    between atoms: _64  and  _65
REMARK   26  A    between atoms: _71  and  _73
REMARK   27  A    between atoms: _73  and  _74
REMARK   28  A    between atoms: _73  and  _76
REMARK   29  A    between atoms: _76  and  _77
REMARK   30  A    between atoms: _80  and  _82
REMARK   31  A    between atoms: _82  and  _83
REMARK   32  A    between atoms: _82  and  _85
REMARK   33  A    between atoms: _85  and  _86
REMARK   34  A    between atoms: _86  and  _87
REMARK   35  A    between atoms: _90  and  _92
REMARK   36  A    between atoms: _92  and  _93
REMARK   37  A    between atoms: _92  and  _95
REMARK   38  A    between atoms: _95  and  _96
REMARK   39  A    between atoms: _99  and  _101
REMARK   40  A    between atoms: _101  and  _102
REMARK   41  A    between atoms: _105  and  _107
REMARK   42  A    between atoms: _107  and  _108
REMARK   43  A    between atoms: _107  and  _110
REMARK   44  A    between atoms: _110  and  _111
REMARK   45  A    between atoms: _114  and  _116
REMARK   46  A    between atoms: _116  and  _117
REMARK   47  A    between atoms: _116  and  _119
REMARK   48  A    between atoms: _122  and  _124
REMARK   49  A    between atoms: _124  and  _125
REMARK   50  A    between atoms: _124  and  _127
REMARK   51  A    between atoms: _127  and  _128
REMARK   52  A    between atoms: _130  and  _132
REMARK   53  A    between atoms: _132  and  _133
REMARK   54  A    between atoms: _132  and  _135
REMARK   55  A    between atoms: _138  and  _140
REMARK   56  A    between atoms: _140  and  _141
REMARK   57  A    between atoms: _140  and  _143
REMARK   58  A    between atoms: _143  and  _144
REMARK   59  A    between atoms: _144  and  _145
REMARK   60  A    between atoms: _150  and  _152
REMARK   61  A    between atoms: _152  and  _153
REMARK   62  A    between atoms: _152  and  _155
REMARK   63  A    between atoms: _155  and  _156
REMARK   64  A    between atoms: _156  and  _157
REMARK   65  A    between atoms: _160  and  _162
REMARK   66  A    between atoms: _162  and  _163
REMARK   67  A    between atoms: _162  and  _165
REMARK   68  A    between atoms: _165  and  _166
REMARK   69  A    between atoms: _169  and  _171
REMARK   70  A    between atoms: _171  and  _172
REMARK   71  A    between atoms: _175  and  _177
REMARK   72  A    between atoms: _177  and  _178
REMARK   73  A    between atoms: _177  and  _180
REMARK   74  A    between atoms: _180  and  _181
REMARK   75  A    between atoms: _184  and  _186
REMARK   76  A    between atoms: _186  and  _187
REMARK   77  A    between atoms: _186  and  _189
REMARK   78  A    between atoms: _189  and  _190
REMARK   79  A    between atoms: _190  and  _191
REMARK   80  A    between atoms: _194  and  _196
REMARK   81  A    between atoms: _196  and  _197
REMARK   82  A    between atoms: _196  and  _199
REMARK   83  A    between atoms: _202  and  _204
REMARK   84  A    between atoms: _204  and  _205
REMARK   85  A    between atoms: _204  and  _207
REMARK   86  A    between atoms: _207  and  _208
REMARK   87  A    between atoms: _208  and  _209
REMARK   88  A    between atoms: _211  and  _213
REMARK   89  A    between atoms: _213  and  _214
REMARK   90  A    between atoms: _213  and  _216
REMARK   91  A    between atoms: _216  and  _217
REMARK   92  A    between atoms: _220  and  _222
REMARK   93  A    between atoms: _222  and  _223
REMARK   94  A    between atoms: _222  and  _225
REMARK   95  A    between atoms: _225  and  _226
REMARK   96  A    between atoms: _229  and  _231
REMARK   97  A    between atoms: _231  and  _232
REMARK   98  A    between atoms: _231  and  _234
REMARK   99  A    between atoms: _234  and  _235
REMARK  100  A    between atoms: _235  and  _236
REMARK  101  A    between atoms: _239  and  _241
REMARK  102  A    between atoms: _241  and  _242
REMARK  103  A    between atoms: _241  and  _244
REMARK  104  A    between atoms: _244  and  _245
REMARK  105  A    between atoms: _248  and  _250
REMARK  106  A    between atoms: _250  and  _251
REMARK  107  A    between atoms: _250  and  _253
REMARK  108  A    between atoms: _253  and  _254
REMARK  109  A    between atoms: _256  and  _258
REMARK  110  A    between atoms: _258  and  _259
REMARK  111  A    between atoms: _258  and  _261
REMARK  112  A    between atoms: _261  and  _262
REMARK  113  A    between atoms: _262  and  _263
REMARK  114  A    between atoms: _263  and  _264
REMARK  115  A    between atoms: _273  and  _275
REMARK  116  A    between atoms: _275  and  _276
REMARK  117  A    between atoms: _275  and  _278
REMARK  118  A    between atoms: _278  and  _279
REMARK  119  A    between atoms: _279  and  _280
REMARK  120  A    between atoms: _280  and  _281
REMARK  121  A    between atoms: _290  and  _292
REMARK  122  A    between atoms: _292  and  _293
REMARK  123  A    between atoms: _292  and  _295
REMARK  124  A    between atoms: _295  and  _296
REMARK  125  A    between atoms: _299  and  _301
REMARK  126  A    between atoms: _301  and  _302
REMARK  127  A    between atoms: _301  and  _304
REMARK  128  A    between atoms: _304  and  _305
REMARK  129  A    between atoms: _308  and  _310
REMARK  130  A    between atoms: _310  and  _311
REMARK  131  A    between atoms: _310  and  _313
REMARK  132  A    between atoms: _313  and  _314
REMARK  133  A    between atoms: _320  and  _322
REMARK  134  A    between atoms: _322  and  _323
REMARK  135  A    between atoms: _322  and  _325
REMARK  136  A    between atoms: _325  and  _326
REMARK  137  A    between atoms: _329  and  _331
REMARK  138  A    between atoms: _331  and  _332
REMARK  139  A    between atoms: _331  and  _334
REMARK  140  A    between atoms: _334  and  _335
REMARK  141  A    between atoms: _335  and  _336
REMARK  142  A    between atoms: _336  and  _337
REMARK  143  A    between atoms: _337  and  _338
REMARK  144  A    between atoms: _342  and  _344
REMARK  145  A    between atoms: _344  and  _345
REMARK  146  A    between atoms: _344  and  _347
REMARK  147  A    between atoms: _347  and  _348
REMARK  148  A    between atoms: _351  and  _353
REMARK  149  A    between atoms: _353  and  _354
REMARK  150  A    between atoms: _353  and  _356
REMARK  151  A    between atoms: _356  and  _357
REMARK  152  A    between atoms: _363  and  _365
REMARK  153  A    between atoms: _365  and  _366
REMARK  154  A    between atoms: _365  and  _368
REMARK  155  A    between atoms: _368  and  _369
REMARK  156  A    between atoms: _374  and  _375
REMARK  157  A    between atoms: _377  and  _379
REMARK  158  A    between atoms: _379  and  _380
REMARK  159  A    between atoms: _379  and  _382
REMARK  160  A    between atoms: _382  and  _383
REMARK  161  A    between atoms: _388  and  _390
REMARK  162  A    between atoms: _390  and  _391
REMARK  163  A    between atoms: _390  and  _393
REMARK  164  A    between atoms: _393  and  _394
REMARK  165  A    between atoms: _394  and  _395
REMARK  166  A    between atoms: _395  and  _396
REMARK  167  A    between atoms: _405  and  _407
REMARK  168  A    between atoms: _407  and  _408
REMARK  169  A    between atoms: _407  and  _410
REMARK  170  A    between atoms: _410  and  _411
REMARK  171  A    between atoms: _414  and  _416
REMARK  172  A    between atoms: _416  and  _417
REMARK  173  A    between atoms: _416  and  _419
REMARK  174  A    between atoms: _419  and  _420
REMARK  175  A    between atoms: _426  and  _428
REMARK  176  A    between atoms: _428  and  _429
REMARK  177  A    between atoms: _432  and  _434
REMARK  178  A    between atoms: _434  and  _435
REMARK  179  A    between atoms: _438  and  _440
REMARK  180  A    between atoms: _440  and  _441
REMARK  181  A    between atoms: _443  and  _445
REMARK  182  A    between atoms: _445  and  _446
REMARK  183  A    between atoms: _445  and  _448
REMARK  184  A    between atoms: _448  and  _449
REMARK  185  A    between atoms: _452  and  _454
REMARK  186  A    between atoms: _454  and  _455
REMARK  187  A    between atoms: _454  and  _457
REMARK  188  A    between atoms: _457  and  _458
REMARK  189  A    between atoms: _458  and  _459
REMARK  190  A    between atoms: _464  and  _466
REMARK  191  A    between atoms: _466  and  _467
REMARK  192  A    between atoms: _466  and  _469
REMARK  193  A    between atoms: _472  and  _474
REMARK  194  A    between atoms: _474  and  _475
REMARK  195  A    between atoms: _474  and  _477
REMARK  196  A    between atoms: _477  and  _478
REMARK  197  A    between atoms: _478  and  _479
REMARK  198  A    between atoms: _482  and  _484
REMARK  199  A    between atoms: _484  and  _485
REMARK  200  A    between atoms: _484  and  _487
REMARK  201  A    between atoms: _487  and  _488
REMARK  202  A    between atoms: _494  and  _496
REMARK  203  A    between atoms: _496  and  _497
REMARK  204  A    between atoms: _496  and  _499
REMARK  205  A    between atoms: _499  and  _500
REMARK  206  A    between atoms: _503  and  _505
REMARK  207  A    between atoms: _505  and  _506
REMARK  208  A    between atoms: _505  and  _508
REMARK  209  A    between atoms: _508  and  _509
REMARK  210  A    between atoms: _515  and  _516
REMARK  211  A    between atoms: _521  and  _523
REMARK  212  A    between atoms: _523  and  _524
REMARK  213  A    between atoms: _523  and  _526
REMARK  214  A    between atoms: _526  and  _527
REMARK  215  A    between atoms: _530  and  _532
REMARK  216  A    between atoms: _532  and  _533
REMARK  217  A    between atoms: _532  and  _535
REMARK  218  A    between atoms: _535  and  _536
REMARK  219  A    between atoms: _542  and  _544
REMARK  220  A    between atoms: _544  and  _545
REMARK  221  A    between atoms: _544  and  _547
REMARK  222  A    between atoms: _547  and  _548
REMARK  223  A    between atoms: _548  and  _549
REMARK  224  A    between atoms: _552  and  _554
REMARK  225  A    between atoms: _554  and  _555
REMARK  226  A    between atoms: _554  and  _557
REMARK  227  A    between atoms: _557  and  _558
REMARK  228  A    between atoms: _560  and  _562
REMARK  229  A    between atoms: _562  and  _563
REMARK  230  A    between atoms: _562  and  _565
REMARK  231  A    between atoms: _565  and  _566
REMARK  232  A    between atoms: _569  and  _571
REMARK  233  A    between atoms: _571  and  _572
REMARK  234  A    between atoms: _571  and  _574
REMARK  235  A    between atoms: _577  and  _579
REMARK  236  A    between atoms: _579  and  _580
REMARK  237  A    between atoms: _579  and  _582
REMARK  238  A    between atoms: _582  and  _583
REMARK  239  A    between atoms: _588  and  _590
REMARK  240  A    between atoms: _590  and  _591
REMARK  241  A    between atoms: _590  and  _593
REMARK  242  A    between atoms: _593  and  _594
REMARK  243  A    between atoms: _596  and  _598
REMARK  244  A    between atoms: _598  and  _599
REMARK  245  A    between atoms: _598  and  _601
REMARK  246  A    between atoms: _601  and  _602
REMARK  247  A    between atoms: _602  and  _603
REMARK  248  A    between atoms: _606  and  _608
REMARK  249  A    between atoms: _608  and  _609
REMARK  250  A    between atoms: _608  and  _611
REMARK  251  A    between atoms: _611  and  _612
REMARK  252  A    between atoms: _612  and  _613
REMARK  253  A    between atoms: _618  and  _620
REMARK  254  A    between atoms: _620  and  _621
REMARK  255  A    between atoms: _620  and  _623
REMARK  256  A    between atoms: _626  and  _628
REMARK  257  A    between atoms: _628  and  _629
REMARK  258  A    between atoms: _628  and  _631
REMARK  259  A    between atoms: _631  and  _632
REMARK  260  A    between atoms: _638  and  _640
REMARK  261  A    between atoms: _640  and  _641
REMARK  262  A    between atoms: _640  and  _643
REMARK  263  A    between atoms: _643  and  _644
REMARK  264  A    between atoms: _647  and  _649
REMARK  265  A    between atoms: _649  and  _650
REMARK  266  A    between atoms: _649  and  _652
REMARK  267  A    between atoms: _652  and  _653
REMARK  268  A    between atoms: _653  and  _654
REMARK  269  A    between atoms: _654  and  _655
REMARK  270  A    between atoms: _655  and  _656
REMARK  271  A    between atoms: _660  and  _662
REMARK  272  A    between atoms: _662  and  _663
REMARK  273  A    between atoms: _662  and  _665
REMARK  274  A    between atoms: _665  and  _666
REMARK  275  A    between atoms: _666  and  _667
REMARK  276  A    between atoms: _667  and  _668
REMARK  277  A    between atoms: _668  and  _669
REMARK  278  A    between atoms: _673  and  _675
REMARK  279  A    between atoms: _675  and  _676
REMARK  280  A    between atoms: _675  and  _678
REMARK  281  A    between atoms: _678  and  _679
REMARK  282  A    between atoms: _683  and  _684
REMARK  283  A    between atoms: _689  and  _691
REMARK  284  A    between atoms: _691  and  _692
REMARK  285  A    between atoms: _691  and  _694
REMARK  286  A    between atoms: _694  and  _695
REMARK  287  A    between atoms: _698  and  _700
REMARK  288  A    between atoms: _700  and  _701
REMARK  289  A    between atoms: _700  and  _703
REMARK  290  A    between atoms: _703  and  _704
REMARK  291  A    between atoms: _714  and  _716
REMARK  292  A    between atoms: _716  and  _717
REMARK  293  A    between atoms: _716  and  _719
REMARK  294  A    between atoms: _719  and  _720
REMARK                            x       y       z     vdW  Elec       q    Type
REMARK                         _______ _______ _______ _____ _____    ______ ____
ROOT
ATOM      1  CA  LEU A   1      33.982  26.556  -4.137  0.00  0.00    +0.133 C 
ENDROOT
BRANCH   1   2
ATOM      2  N   LEU A   1      33.551  27.896  -3.765  0.00  0.00    -0.239 NA
ATOM      3  H   LEU A   1      34.256  28.659  -3.719  0.00  0.00    +0.142 HD
ENDBRANCH   1   2
BRANCH   1   4
ATOM      4  C   LEU A   1      33.817  25.537  -3.021  0.00  0.00    +0.224 C 
ATOM      5  O   LEU A   1      33.583  24.335  -3.293  0.00  0.00    -0.287 OA
ENDBRANCH   1   4
BRANCH   1   6
ATOM      6  CB  LEU A   1      35.433  26.560  -4.601  0.00  0.00    +0.025 C 
BRANCH   6   7
ATOM      7  CG  LEU A   1      35.706  27.030  -6.026  0.00  0.00    +0.002 C 
ATOM      8  CD2 LEU A   1      37.210  27.245  -6.233  0.00  0.00    +0.000 C 
ATOM      9  CD1 LEU A   1      35.113  26.038  -7.083  0.00  0.00    +0.000 C 
ENDBRANCH   6   7
ENDBRANCH   1   6
TORSDOF 4
REMARK  Name = ../refined-set-2016/3ipq/3ipq_pocket.pdb
REMARK  294 active torsions:
REMARK  status: ('A' for Active; 'I' for Inactive)
REMARK    1  A    between atoms: _1  and  _3
REMARK    2  A    between atoms: _3  and  _4
REMARK    3  A    between atoms: _3  and  _6
REMARK    4  A    between atoms: _6  and  _7
REMARK    5  A    between atoms: _7  and  _8
REMARK    6  A    between atoms: _13  and  _15
REMARK    7  A    between atoms: _15  and  _16
REMARK    8  A    between atoms: _15  and  _18
REMARK    9  A    between atoms: _18  and  _19
REMARK   10  A    between atoms: _19  and  _20
REMARK   11  A    between atoms: _20  and  _21
REMARK   12  A    between atoms: _30  and  _32
REMARK   13  A    between atoms: _32  and  _33
REMARK   14  A    between atoms: _32  and  _35
REMARK   15  A    between atoms: _35  and  _36
REMARK   16  A    between atoms: _42  and  _44
REMARK   17  A    between atoms: _44  and  _45
REMARK   18  A    between atoms: _48  and  _50
REMARK   19  A    between atoms: _50  and  _51
REMARK   20  A    between atoms: _50  and  _53
REMARK   21  A    between atoms: _53  and  _54
REMARK   22  A    between atoms: _59  and  _61
REMARK   23  A    between atoms: _61  and  _62
REMARK   24  A    between atoms: _61  and  _64
REMARK   25  A    between atoms: _64  and  _65
REMARK   26  A    between atoms: _71  and  _73
REMARK   27  A    between atoms: _73  and  _74
REMARK   28  A    between atoms: _73  and  _76
REMARK   29  A    between atoms: _76  and  _77
REMARK   30  A    between atoms: _80  and  _82
REMARK   31  A    between atoms: _82  and  _83
REMARK   32  A    between atoms: _82  and  _85
REMARK   33  A    between atoms: _85  and  _86
REMARK   34  A    between atoms: _86  and  _87
REMARK   35  A    between atoms: _90  and  _92
REMARK   36  A    between atoms: _92  and  _93
REMARK   37  A    between atoms: _92  and  _95
REMARK   38  A    between atoms: _95  and  _96
REMARK   39  A    between atoms: _99  and  _101
REMARK   40  A    between atoms: _101  and  _102
REMARK   41  A    between atoms: _105  and  _107
REMARK   42  A    between atoms: _107  and  _108
REMARK   43  A    between atoms: _107  and  _110
REMARK   44  A    between atoms: _110  and  _111
REMARK   45  A    between atoms: _114  and  _116
REMARK   46  A    between atoms: _116  and  _117
REMARK   47  A    between atoms: _116  and  _119
REMARK   48  A    between atoms: _122  and  _124
REMARK   49  A    between atoms: _124  and  _125
REMARK   50  A    between atoms: _124  and  _127
REMARK   51  A    between atoms: _127  and  _128
REMARK   52  A    between atoms: _130  and  _132
REMARK   53  A    between atoms: _132  and  _133
REMARK   54  A    between atoms: _132  and  _135
REMARK   55  A    between atoms: _138  and  _140
REMARK   56  A    between atoms: _140  and  _141
REMARK   57  A    between atoms: _140  and  _143
REMARK   58  A    between atoms: _143  and  _144
REMARK   59  A    between atoms: _144  and  _145
REMARK   60  A    between atoms: _150  and  _152
REMARK   61  A    between atoms: _152  and  _153
REMARK   62  A    between atoms: _152  and  _155
REMARK   63  A    between atoms: _155  and  _156
REMARK   64  A    between atoms: _156  and  _157
REMARK   65  A    between atoms: _160  and  _162
REMARK   66  A    between atoms: _162  and  _163
REMARK   67  A    between atoms: _162  and  _165
REMARK   68  A    between atoms: _165  and  _166
REMARK   69  A    between atoms: _169  and  _171
REMARK   70  A    between atoms: _171  and  _172
REMARK   71  A    between atoms: _175  and  _177
REMARK   72  A    between atoms: _177  and  _178
REMARK   73  A    between atoms: _177  and  _180
REMARK   74  A    between atoms: _180  and  _181
REMARK   75  A    between atoms: _184  and  _186
REMARK   76  A    between atoms: _186  and  _187
REMARK   77  A    between atoms: _186  and  _189
REMARK   78  A    between atoms: _189  and  _190
REMARK   79  A    between atoms: _190  and  _191
REMARK   80  A    between atoms: _194  and  _196
REMARK   81  A    between atoms: _196  and  _197
REMARK   82  A    between atoms: _196  and  _199
REMARK   83  A    between atoms: _202  and  _204
REMARK   84  A    between atoms: _204  and  _205
REMARK   85  A    between atoms: _204  and  _207
REMARK   86  A    between atoms: _207  and  _208
REMARK   87  A    between atoms: _208  and  _209
REMARK   88  A    between atoms: _211  and  _213
REMARK   89  A    between atoms: _213  and  _214
REMARK   90  A    between atoms: _213  and  _216
REMARK   91  A    between atoms: _216  and  _217
REMARK   92  A    between atoms: _220  and  _222
REMARK   93  A    between atoms: _222  and  _223
REMARK   94  A    between atoms: _222  and  _225
REMARK   95  A    between atoms: _225  and  _226
REMARK   96  A    between atoms: _229  and  _231
REMARK   97  A    between atoms: _231  and  _232
REMARK   98  A    between atoms: _231  and  _234
REMARK   99  A    between atoms: _234  and  _235
REMARK  100  A    between atoms: _235  and  _236
REMARK  101  A    between atoms: _239  and  _241
REMARK  102  A    between atoms: _241  and  _242
REMARK  103  A    between atoms: _241  and  _244
REMARK  104  A    between atoms: _244  and  _245
REMARK  105  A    between atoms: _248  and  _250
REMARK  106  A    between atoms: _250  and  _251
REMARK  107  A    between atoms: _250  and  _253
REMARK  108  A    between atoms: _253  and  _254
REMARK  109  A    between atoms: _256  and  _258
REMARK  110  A    between atoms: _258  and  _259
REMARK  111  A    between atoms: _258  and  _261
REMARK  112  A    between atoms: _261  and  _262
REMARK  113  A    between atoms: _262  and  _263
REMARK  114  A    between atoms: _263  and  _264
REMARK  115  A    between atoms: _273  and  _275
REMARK  116  A    between atoms: _275  and  _276
REMARK  117  A    between atoms: _275  and  _278
REMARK  118  A    between atoms: _278  and  _279
REMARK  119  A    between atoms: _279  and  _280
REMARK  120  A    between atoms: _280  and  _281
REMARK  121  A    between atoms: _290  and  _292
REMARK  122  A    between atoms: _292  and  _293
REMARK  123  A    between atoms: _292  and  _295
REMARK  124  A    between atoms: _295  and  _296
REMARK  125  A    between atoms: _299  and  _301
REMARK  126  A    between atoms: _301  and  _302
REMARK  127  A    between atoms: _301  and  _304
REMARK  128  A    between atoms: _304  and  _305
REMARK  129  A    between atoms: _308  and  _310
REMARK  130  A    between atoms: _310  and  _311
REMARK  131  A    between atoms: _310  and  _313
REMARK  132  A    between atoms: _313  and  _314
REMARK  133  A    between atoms: _320  and  _322
REMARK  134  A    between atoms: _322  and  _323
REMARK  135  A    between atoms: _322  and  _325
REMARK  136  A    between atoms: _325  and  _326
REMARK  137  A    between atoms: _329  and  _331
REMARK  138  A    between atoms: _331  and  _332
REMARK  139  A    between atoms: _331  and  _334
REMARK  140  A    between atoms: _334  and  _335
REMARK  141  A    between atoms: _335  and  _336
REMARK  142  A    between atoms: _336  and  _337
REMARK  143  A    between atoms: _337  and  _338
REMARK  144  A    between atoms: _342  and  _344
REMARK  145  A    between atoms: _344  and  _345
REMARK  146  A    between atoms: _344  and  _347
REMARK  147  A    between atoms: _347  and  _348
REMARK  148  A    between atoms: _351  and  _353
REMARK  149  A    between atoms: _353  and  _354
REMARK  150  A    between atoms: _353  and  _356
REMARK  151  A    between atoms: _356  and  _357
REMARK  152  A    between atoms: _363  and  _365
REMARK  153  A    between atoms: _365  and  _366
REMARK  154  A    between atoms: _365  and  _368
REMARK  155  A    between atoms: _368  and  _369
REMARK  156  A    between atoms: _374  and  _375
REMARK  157  A    between atoms: _377  and  _379
REMARK  158  A    between atoms: _379  and  _380
REMARK  159  A    between atoms: _379  and  _382
REMARK  160  A    between atoms: _382  and  _383
REMARK  161  A    between atoms: _388  and  _390
REMARK  162  A    between atoms: _390  and  _391
REMARK  163  A    between atoms: _390  and  _393
REMARK  164  A    between atoms: _393  and  _394
REMARK  165  A    between atoms: _394  and  _395
REMARK  166  A    between atoms: _395  and  _396
REMARK  167  A    between atoms: _405  and  _407
REMARK  168  A    between atoms: _407  and  _408
REMARK  169  A    between atoms: _407  and  _410
REMARK  170  A    between atoms: _410  and  _411
REMARK  171  A    between atoms: _414  and  _416
REMARK  172  A    between atoms: _416  and  _417
REMARK  173  A    between atoms: _416  and  _419
REMARK  174  A    between atoms: _419  and  _420
REMARK  175  A    between atoms: _426  and  _428
REMARK  176  A    between atoms: _428  and  _429
REMARK  177  A    between atoms: _432  and  _434
REMARK  178  A    between atoms: _434  and  _435
REMARK  179  A    between atoms: _438  and  _440
REMARK  180  A    between atoms: _440  and  _441
REMARK  181  A    between atoms: _443  and  _445
REMARK  182  A    between atoms: _445  and  _446
REMARK  183  A    between atoms: _445  and  _448
REMARK  184  A    between atoms: _448  and  _449
REMARK  185  A    between atoms: _452  and  _454
REMARK  186  A    between atoms: _454  and  _455
REMARK  187  A    between atoms: _454  and  _457
REMARK  188  A    between atoms: _457  and  _458
REMARK  189  A    between atoms: _458  and  _459
REMARK  190  A    between atoms: _464  and  _466
REMARK  191  A    between atoms: _466  and  _467
REMARK  192  A    between atoms: _466  and  _469
REMARK  193  A    between atoms: _472  and  _474
REMARK  194  A    between atoms: _474  and  _475
REMARK  195  A    between atoms: _474  and  _477
REMARK  196  A    between atoms: _477  and  _478
REMARK  197  A    between atoms: _478  and  _479
REMARK  198  A    between atoms: _482  and  _484
REMARK  199  A    between atoms: _484  and  _485
REMARK  200  A    between atoms: _484  and  _487
REMARK  201  A    between atoms: _487  and  _488
REMARK  202  A    between atoms: _494  and  _496
REMARK  203  A    between atoms: _496  and  _497
REMARK  204  A    between atoms: _496  and  _499
REMARK  205  A    between atoms: _499  and  _500
REMARK  206  A    between atoms: _503  and  _505
REMARK  207  A    between atoms: _505  and  _506
REMARK  208  A    between atoms: _505  and  _508
REMARK  209  A    between atoms: _508  and  _509
REMARK  210  A    between atoms: _515  and  _516
REMARK  211  A    between atoms: _521  and  _523
REMARK  212  A    between atoms: _523  and  _524
REMARK  213  A    between atoms: _523  and  _526
REMARK  214  A    between atoms: _526  and  _527
REMARK  215  A    between atoms: _530  and  _532
REMARK  216  A    between atoms: _532  and  _533
REMARK  217  A    between atoms: _532  and  _535
REMARK  218  A    between atoms: _535  and  _536
REMARK  219  A    between atoms: _542  and  _544
REMARK  220  A    between atoms: _544  and  _545
REMARK  221  A    between atoms: _544  and  _547
REMARK  222  A    between atoms: _547  and  _548
REMARK  223  A    between atoms: _548  and  _549
REMARK  224  A    between atoms: _552  and  _554
REMARK  225  A    between atoms: _554  and  _555
REMARK  226  A    between atoms: _554  and  _557
REMARK  227  A    between atoms: _557  and  _558
REMARK  228  A    between atoms: _560  and  _562
REMARK  229  A    between atoms: _562  and  _563
REMARK  230  A    between atoms: _562  and  _565
REMARK  231  A    between atoms: _565  and  _566
REMARK  232  A    between atoms: _569  and  _571
REMARK  233  A    between atoms: _571  and  _572
REMARK  234  A    between atoms: _571  and  _574
REMARK  235  A    between atoms: _577  and  _579
REMARK  236  A    between atoms: _579  and  _580
REMARK  237  A    between atoms: _579  and  _582
REMARK  238  A    between atoms: _582  and  _583
REMARK  239  A    between atoms: _588  and  _590
REMARK  240  A    between atoms: _590  and  _591
REMARK  241  A    between atoms: _590  and  _593
REMARK  242  A    between atoms: _593  and  _594
REMARK  243  A    between atoms: _596  and  _598
REMARK  244  A    between atoms: _598  and  _599
REMARK  245  A    between atoms: _598  and  _601
REMARK  246  A    between atoms: _601  and  _602
REMARK  247  A    between atoms: _602  and  _603
REMARK  248  A    between atoms: _606  and  _608
REMARK  249  A    between atoms: _608  and  _609
REMARK  250  A    between atoms: _608  and  _611
REMARK  251  A    between atoms: _611  and  _612
REMARK  252  A    between atoms: _612  and  _613
REMARK  253  A    between atoms: _618  and  _620
REMARK  254  A    between atoms: _620  and  _621
REMARK  255  A    between atoms: _620  and  _623
REMARK  256  A    between atoms: _626  and  _628
REMARK  257  A    between atoms: _628  and  _629
REMARK  258  A    between atoms: _628  and  _631
REMARK  259  A    between atoms: _631  and  _632
REMARK  260  A    between atoms: _638  and  _640
REMARK  261  A    between atoms: _640  and  _641
REMARK  262  A    between atoms: _640  and  _643
REMARK  263  A    between atoms: _643  and  _644
REMARK  264  A    between atoms: _647  and  _649
REMARK  265  A    between atoms: _649  and  _650
REMARK  266  A    between atoms: _649  and  _652
REMARK  267  A    between atoms: _652  and  _653
REMARK  268  A    between atoms: _653  and  _654
REMARK  269  A    between atoms: _654  and  _655
REMARK  270  A    between atoms: _655  and  _656
REMARK  271  A    between atoms: _660  and  _662
REMARK  272  A    between atoms: _662  and  _663
REMARK  273  A    between atoms: _662  and  _665
REMARK  274  A    between atoms: _665  and  _666
REMARK  275  A    between atoms: _666  and  _667
REMARK  276  A    between atoms: _667  and  _668
REMARK  277  A    between atoms: _668  and  _669
REMARK  278  A    between atoms: _673  and  _675
REMARK  279  A    between atoms: _675  and  _676
REMARK  280  A    between atoms: _675  and  _678
REMARK  281  A    between atoms: _678  and  _679
REMARK  282  A    between atoms: _683  and  _684
REMARK  283  A    between atoms: _689  and  _691
REMARK  284  A    between atoms: _691  and  _692
REMARK  285  A    between atoms: _691  and  _694
REMARK  286  A    between atoms: _694  and  _695
REMARK  287  A    between atoms: _698  and  _700
REMARK  288  A    between atoms: _700  and  _701
REMARK  289  A    between atoms: _700  and  _703
REMARK  290  A    between atoms: _703  and  _704
REMARK  291  A    between atoms: _714  and  _716
REMARK  292  A    between atoms: _716  and  _717
REMARK  293  A    between atoms: _716  and  _719
REMARK  294  A    between atoms: _719  and  _720
REMARK                            x       y       z     vdW  Elec       q    Type
REMARK                         _______ _______ _______ _____ _____    ______ ____
ROOT
ATOM      1  CA  GLU A   4      27.179  19.620  -2.878  0.00  0.00    +0.149 C 
ENDROOT
BRANCH   1   4
ATOM      2  C   SER A   3      28.476  19.605  -0.799  0.00  0.00    +0.243 C 
ATOM      3  O   SER A   3      27.858  18.620  -0.365  0.00  0.00    -0.273 OA
ATOM      4  N   GLU A   4      28.213  20.161  -1.975  0.00  0.00    -0.297 N 
ATOM      5  H   GLU A   4      28.751  21.001  -2.268  0.00  0.00    +0.150 HD
BRANCH   2   6
ATOM      6  CA  SER A   3      29.641  20.236   0.007  0.00  0.00    +0.178 C 
BRANCH   6   8
ATOM      7  C   HIS A   2      31.296  20.152  -1.765  0.00  0.00    +0.241 C 
ATOM      8  N   SER A   3      30.636  20.875  -0.863  0.00  0.00    -0.295 N 
ATOM      9  H   SER A   3      30.825  21.894  -0.774  0.00  0.00    +0.150 HD
ATOM     10  O   HIS A   2      31.141  18.933  -1.865  0.00  0.00    -0.273 OA
BRANCH   7  11
ATOM     11  CA  HIS A   2      32.299  20.845  -2.692  0.00  0.00    +0.155 C 
BRANCH  11  13
ATOM     12  C   VAL A   1      30.761  22.076  -4.091  0.00  0.00    +0.238 C 
ATOM     13  N   HIS A   2      31.818  22.071  -3.296  0.00  0.00    -0.297 N 
ATOM     14  H   HIS A   2      32.313  22.964  -3.101  0.00  0.00    +0.150 HD
ATOM     15  O   VAL A   1      30.170  21.014  -4.420  0.00  0.00    -0.274 OA
BRANCH  12  16
ATOM     16  CA  VAL A   1      30.283  23.472  -4.546  0.00  0.00    +0.145 C 
BRANCH  16  17
ATOM     17  CB  VAL A   1      31.135  24.023  -5.747  0.00  0.00    +0.025 C 
ATOM     18  CG2 VAL A   1      30.523  25.316  -6.248  0.00  0.00    +0.002 C 
ATOM     19  CG1 VAL A   1      31.257  22.981  -6.872  0.00  0.00    +0.002 C 
ENDBRANCH  16  17
BRANCH  16  20
ATOM     20  N   VAL A   1      30.296  24.414  -3.416  0.00  0.00    -0.238 NA
ATOM     21  H   VAL A   1      30.847  25.292  -3.498  0.00  0.00    +0.142 HD
ENDBRANCH  16  20
ENDBRANCH  12  16
ENDBRANCH  11  13
BRANCH  11  22
ATOM     22  CB  HIS A   2      33.623  21.057  -1.966  0.00  0.00    +0.076 C 
BRANCH  22  23
ATOM     23  CG  HIS A   2      34.026  19.899  -1.108  0.00  0.00    +0.082 A 
ATOM     24  ND1 HIS A   2      33.893  19.910   0.264  0.00  0.00    -0.227 NA
ATOM     25  CE1 HIS A   2      34.316  18.759   0.750  0.00  0.00    +0.199 A 
ATOM     26  NE2 HIS A   2      34.710  17.995  -0.255  0.00  0.00    -0.221 NA
ATOM     27  CD2 HIS A   2      34.536  18.686  -1.429  0.00  0.00    +0.115 A 
ENDBRANCH  22  23
ENDBRANCH  11  22
ENDBRANCH   7  11
ENDBRANCH   6   8
BRANCH   6  28
ATOM     28  CB  SER A   3      29.081  21.211   1.035  0.00  0.00    +0.166 C 
BRANCH  28  29
ATOM     29  OG  SER A   3      28.251  22.173   0.417  0.00  0.00    -0.380 OA
ATOM     30  H   SER A   3      28.777  22.681  -0.251  0.00  0.00    +0.211 HD
ENDBRANCH  28  29
ENDBRANCH   6  28
ENDBRANCH   2   6
ENDBRANCH   1   4
BRANCH   1  31
ATOM     31  C   GLU A   4      27.615  18.315  -3.522  0.00  0.00    +0.241 C 
ATOM     32  O   GLU A   4      26.808  17.399  -3.672  0.00  0.00    -0.273 OA
ATOM     33  N   GLN A   5      28.893  18.212  -3.856  0.00  0.00    -0.297 N 
ATOM     34  H   GLN A   5      29.508  19.046  -3.760  0.00  0.00    +0.150 HD
BRANCH  33  35
ATOM     35  CA  GLN A   5      29.462  16.972  -4.351  0.00  0.00    +0.149 C 
BRANCH  35  36
ATOM     36  C   GLN A   5      29.489  15.895  -3.260  0.00  0.00    +0.241 C 
ATOM     37  N   VAL A   6      29.785  16.300  -2.033  0.00  0.00    -0.297 N 
ATOM     38  H   VAL A   6      29.992  17.304  -1.861  0.00  0.00    +0.150 HD
ATOM     39  O   GLN A   5      29.268  14.705  -3.532  0.00  0.00    -0.273 OA
BRANCH  37  40
ATOM     40  CA  VAL A   6      29.824  15.359  -0.923  0.00  0.00    +0.149 C 
BRANCH  40  41
ATOM     41  C   VAL A   6      28.417  14.791  -0.695  0.00  0.00    +0.241 C 
ATOM     42  O   VAL A   6      28.244  13.585  -0.449  0.00  0.00    -0.273 OA
ATOM     43  N   PHE A   7      27.427  15.669  -0.777  0.00  0.00    -0.298 N 
ATOM     44  H   PHE A   7      27.660  16.670  -0.937  0.00  0.00    +0.150 HD
BRANCH  43  45
ATOM     45  CA  PHE A   7      26.023  15.287  -0.652  0.00  0.00    +0.141 C 
BRANCH  45  46
ATOM     46  C   PHE A   7      25.606  14.278  -1.753  0.00  0.00    +0.227 C 
ATOM     47  O   PHE A   7      24.976  13.270  -1.462  0.00  0.00    -0.286 OA
ENDBRANCH  45  46
BRANCH  45  48
ATOM     48  CB  PHE A   7      25.148  16.546  -0.685  0.00  0.00    +0.054 C 
BRANCH  48  49
ATOM     49  CG  PHE A   7      23.690  16.268  -0.502  0.00  0.00    -0.020 A 
ATOM     50  CD2 PHE A   7      23.103  16.380   0.754  0.00  0.00    -0.004 A 
ATOM     51  CE2 PHE A   7      21.744  16.121   0.929  0.00  0.00    -0.000 A 
ATOM     52  CZ  PHE A   7      20.962  15.745  -0.160  0.00  0.00    -0.000 A 
ATOM     53  CE1 PHE A   7      21.536  15.634  -1.419  0.00  0.00    -0.000 A 
ATOM     54  CD1 PHE A   7      22.901  15.894  -1.584  0.00  0.00    -0.004 A 
ENDBRANCH  48  49
ENDBRANCH  45  48
ENDBRANCH  43  45
ENDBRANCH  40  41
BRANCH  40  55
ATOM     55  CB  VAL A   6      30.388  16.009   0.363  0.00  0.00    +0.027 C 
ATOM     56  CG2 VAL A   6      30.025  15.200   1.604  0.00  0.00    +0.002 C 
ATOM     57  CG1 VAL A   6      31.920  16.174   0.248  0.00  0.00    +0.002 C 
ENDBRANCH  40  55
ENDBRANCH  37  40
ENDBRANCH  35  36
BRANCH  35  58
ATOM     58  CB  GLN A   5      30.880  17.232  -4.864  0.00  0.00    +0.039 C 
BRANCH  58  59
ATOM     59  CG  GLN A   5      31.650  15.990  -5.294  0.00  0.00    +0.087 C 
BRANCH  59  60
ATOM     60  CD  GLN A   5      31.024  15.311  -6.511  0.00  0.00    +0.219 C 
ATOM     61  NE2 GLN A   5      30.026  14.461  -6.278  0.00  0.00    -0.329 N 
ATOM     62 HE21 GLN A   5      29.698  14.298  -5.305  0.00  0.00    +0.145 HD
ATOM     63 HE22 GLN A   5      29.574  13.960  -7.069  0.00  0.00    +0.145 HD
ATOM     64  OE1 GLN A   5      31.448  15.539  -7.640  0.00  0.00    -0.275 OA
ENDBRANCH  59  60
ENDBRANCH  58  59
ENDBRANCH  35  58
ENDBRANCH  33  35
ENDBRANCH   1  31
BRANCH   1  65
ATOM     65  CB  GLU A   4      26.799  20.654  -3.936  0.00  0.00    +0.041 C 
BRANCH  65  66
ATOM     66  CG  GLU A   4      26.110  21.835  -3.317  0.00  0.00    +0.116 C 
BRANCH  66  67
ATOM     67  CD  GLU A   4      25.883  23.010  -4.278  0.00  0.00    +0.365 C 
ATOM     68  OE2 GLU A   4      25.133  23.938  -3.887  0.00  0.00    -0.246 OA
ATOM     69  OE1 GLU A   4      26.453  23.017  -5.402  0.00  0.00    -0.246 OA
ENDBRANCH  66  67
ENDBRANCH  65  66
ENDBRANCH   1  65
TORSDOF 28
REMARK  Name = ../refined-set-2016/3ipq/3ipq_pocket.pdb
REMARK  294 active torsions:
REMARK  status: ('A' for Active; 'I' for Inactive)
REMARK    1  A    between atoms: _1  and  _3
REMARK    2  A    between atoms: _3  and  _4
REMARK    3  A    between atoms: _3  and  _6
REMARK    4  A    between atoms: _6  and  _7
REMARK    5  A    between atoms: _7  and  _8
REMARK    6  A    between atoms: _13  and  _15
REMARK    7  A    between atoms: _15  and  _16
REMARK    8  A    between atoms: _15  and  _18
REMARK    9  A    between atoms: _18  and  _19
REMARK   10  A    between atoms: _19  and  _20
REMARK   11  A    between atoms: _20  and  _21
REMARK   12  A    between atoms: _30  and  _32
REMARK   13  A    between atoms: _32  and  _33
REMARK   14  A    between atoms: _32  and  _35
REMARK   15  A    between atoms: _35  and  _36
REMARK   16  A    between atoms: _42  and  _44
REMARK   17  A    between atoms: _44  and  _45
REMARK   18  A    between atoms: _48  and  _50
REMARK   19  A    between atoms: _50  and  _51
REMARK   20  A    between atoms: _50  and  _53
REMARK   21  A    between atoms: _53  and  _54
REMARK   22  A    between atoms: _59  and  _61
REMARK   23  A    between atoms: _61  and  _62
REMARK   24  A    between atoms: _61  and  _64
REMARK   25  A    between atoms: _64  and  _65
REMARK   26  A    between atoms: _71  and  _73
REMARK   27  A    between atoms: _73  and  _74
REMARK   28  A    between atoms: _73  and  _76
REMARK   29  A    between atoms: _76  and  _77
REMARK   30  A    between atoms: _80  and  _82
REMARK   31  A    between atoms: _82  and  _83
REMARK   32  A    between atoms: _82  and  _85
REMARK   33  A    between atoms: _85  and  _86
REMARK   34  A    between atoms: _86  and  _87
REMARK   35  A    between atoms: _90  and  _92
REMARK   36  A    between atoms: _92  and  _93
REMARK   37  A    between atoms: _92  and  _95
REMARK   38  A    between atoms: _95  and  _96
REMARK   39  A    between atoms: _99  and  _101
REMARK   40  A    between atoms: _101  and  _102
REMARK   41  A    between atoms: _105  and  _107
REMARK   42  A    between atoms: _107  and  _108
REMARK   43  A    between atoms: _107  and  _110
REMARK   44  A    between atoms: _110  and  _111
REMARK   45  A    between atoms: _114  and  _116
REMARK   46  A    between atoms: _116  and  _117
REMARK   47  A    between atoms: _116  and  _119
REMARK   48  A    between atoms: _122  and  _124
REMARK   49  A    between atoms: _124  and  _125
REMARK   50  A    between atoms: _124  and  _127
REMARK   51  A    between atoms: _127  and  _128
REMARK   52  A    between atoms: _130  and  _132
REMARK   53  A    between atoms: _132  and  _133
REMARK   54  A    between atoms: _132  and  _135
REMARK   55  A    between atoms: _138  and  _140
REMARK   56  A    between atoms: _140  and  _141
REMARK   57  A    between atoms: _140  and  _143
REMARK   58  A    between atoms: _143  and  _144
REMARK   59  A    between atoms: _144  and  _145
REMARK   60  A    between atoms: _150  and  _152
REMARK   61  A    between atoms: _152  and  _153
REMARK   62  A    between atoms: _152  and  _155
REMARK   63  A    between atoms: _155  and  _156
REMARK   64  A    between atoms: _156  and  _157
REMARK   65  A    between atoms: _160  and  _162
REMARK   66  A    between atoms: _162  and  _163
REMARK   67  A    between atoms: _162  and  _165
REMARK   68  A    between atoms: _165  and  _166
REMARK   69  A    between atoms: _169  and  _171
REMARK   70  A    between atoms: _171  and  _172
REMARK   71  A    between atoms: _175  and  _177
REMARK   72  A    between atoms: _177  and  _178
REMARK   73  A    between atoms: _177  and  _180
REMARK   74  A    between atoms: _180  and  _181
REMARK   75  A    between atoms: _184  and  _186
REMARK   76  A    between atoms: _186  and  _187
REMARK   77  A    between atoms: _186  and  _189
REMARK   78  A    between atoms: _189  and  _190
REMARK   79  A    between atoms: _190  and  _191
REMARK   80  A    between atoms: _194  and  _196
REMARK   81  A    between atoms: _196  and  _197
REMARK   82  A    between atoms: _196  and  _199
REMARK   83  A    between atoms: _202  and  _204
REMARK   84  A    between atoms: _204  and  _205
REMARK   85  A    between atoms: _204  and  _207
REMARK   86  A    between atoms: _207  and  _208
REMARK   87  A    between atoms: _208  and  _209
REMARK   88  A    between atoms: _211  and  _213
REMARK   89  A    between atoms: _213  and  _214
REMARK   90  A    between atoms: _213  and  _216
REMARK   91  A    between atoms: _216  and  _217
REMARK   92  A    between atoms: _220  and  _222
REMARK   93  A    between atoms: _222  and  _223
REMARK   94  A    between atoms: _222  and  _225
REMARK   95  A    between atoms: _225  and  _226
REMARK   96  A    between atoms: _229  and  _231
REMARK   97  A    between atoms: _231  and  _232
REMARK   98  A    between atoms: _231  and  _234
REMARK   99  A    between atoms: _234  and  _235
REMARK  100  A    between atoms: _235  and  _236
REMARK  101  A    between atoms: _239  and  _241
REMARK  102  A    between atoms: _241  and  _242
REMARK  103  A    between atoms: _241  and  _244
REMARK  104  A    between atoms: _244  and  _245
REMARK  105  A    between atoms: _248  and  _250
REMARK  106  A    between atoms: _250  and  _251
REMARK  107  A    between atoms: _250  and  _253
REMARK  108  A    between atoms: _253  and  _254
REMARK  109  A    between atoms: _256  and  _258
REMARK  110  A    between atoms: _258  and  _259
REMARK  111  A    between atoms: _258  and  _261
REMARK  112  A    between atoms: _261  and  _262
REMARK  113  A    between atoms: _262  and  _263
REMARK  114  A    between atoms: _263  and  _264
REMARK  115  A    between atoms: _273  and  _275
REMARK  116  A    between atoms: _275  and  _276
REMARK  117  A    between atoms: _275  and  _278
REMARK  118  A    between atoms: _278  and  _279
REMARK  119  A    between atoms: _279  and  _280
REMARK  120  A    between atoms: _280  and  _281
REMARK  121  A    between atoms: _290  and  _292
REMARK  122  A    between atoms: _292  and  _293
REMARK  123  A    between atoms: _292  and  _295
REMARK  124  A    between atoms: _295  and  _296
REMARK  125  A    between atoms: _299  and  _301
REMARK  126  A    between atoms: _301  and  _302
REMARK  127  A    between atoms: _301  and  _304
REMARK  128  A    between atoms: _304  and  _305
REMARK  129  A    between atoms: _308  and  _310
REMARK  130  A    between atoms: _310  and  _311
REMARK  131  A    between atoms: _310  and  _313
REMARK  132  A    between atoms: _313  and  _314
REMARK  133  A    between atoms: _320  and  _322
REMARK  134  A    between atoms: _322  and  _323
REMARK  135  A    between atoms: _322  and  _325
REMARK  136  A    between atoms: _325  and  _326
REMARK  137  A    between atoms: _329  and  _331
REMARK  138  A    between atoms: _331  and  _332
REMARK  139  A    between atoms: _331  and  _334
REMARK  140  A    between atoms: _334  and  _335
REMARK  141  A    between atoms: _335  and  _336
REMARK  142  A    between atoms: _336  and  _337
REMARK  143  A    between atoms: _337  and  _338
REMARK  144  A    between atoms: _342  and  _344
REMARK  145  A    between atoms: _344  and  _345
REMARK  146  A    between atoms: _344  and  _347
REMARK  147  A    between atoms: _347  and  _348
REMARK  148  A    between atoms: _351  and  _353
REMARK  149  A    between atoms: _353  and  _354
REMARK  150  A    between atoms: _353  and  _356
REMARK  151  A    between atoms: _356  and  _357
REMARK  152  A    between atoms: _363  and  _365
REMARK  153  A    between atoms: _365  and  _366
REMARK  154  A    between atoms: _365  and  _368
REMARK  155  A    between atoms: _368  and  _369
REMARK  156  A    between atoms: _374  and  _375
REMARK  157  A    between atoms: _377  and  _379
REMARK  158  A    between atoms: _379  and  _380
REMARK  159  A    between atoms: _379  and  _382
REMARK  160  A    between atoms: _382  and  _383
REMARK  161  A    between atoms: _388  and  _390
REMARK  162  A    between atoms: _390  and  _391
REMARK  163  A    between atoms: _390  and  _393
REMARK  164  A    between atoms: _393  and  _394
REMARK  165  A    between atoms: _394  and  _395
REMARK  166  A    between atoms: _395  and  _396
REMARK  167  A    between atoms: _405  and  _407
REMARK  168  A    between atoms: _407  and  _408
REMARK  169  A    between atoms: _407  and  _410
REMARK  170  A    between atoms: _410  and  _411
REMARK  171  A    between atoms: _414  and  _416
REMARK  172  A    between atoms: _416  and  _417
REMARK  173  A    between atoms: _416  and  _419
REMARK  174  A    between atoms: _419  and  _420
REMARK  175  A    between atoms: _426  and  _428
REMARK  176  A    between atoms: _428  and  _429
REMARK  177  A    between atoms: _432  and  _434
REMARK  178  A    between atoms: _434  and  _435
REMARK  179  A    between atoms: _438  and  _440
REMARK  180  A    between atoms: _440  and  _441
REMARK  181  A    between atoms: _443  and  _445
REMARK  182  A    between atoms: _445  and  _446
REMARK  183  A    between atoms: _445  and  _448
REMARK  184  A    between atoms: _448  and  _449
REMARK  185  A    between atoms: _452  and  _454
REMARK  186  A    between atoms: _454  and  _455
REMARK  187  A    between atoms: _454  and  _457
REMARK  188  A    between atoms: _457  and  _458
REMARK  189  A    between atoms: _458  and  _459
REMARK  190  A    between atoms: _464  and  _466
REMARK  191  A    between atoms: _466  and  _467
REMARK  192  A    between atoms: _466  and  _469
REMARK  193  A    between atoms: _472  and  _474
REMARK  194  A    between atoms: _474  and  _475
REMARK  195  A    between atoms: _474  and  _477
REMARK  196  A    between atoms: _477  and  _478
REMARK  197  A    between atoms: _478  and  _479
REMARK  198  A    between atoms: _482  and  _484
REMARK  199  A    between atoms: _484  and  _485
REMARK  200  A    between atoms: _484  and  _487
REMARK  201  A    between atoms: _487  and  _488
REMARK  202  A    between atoms: _494  and  _496
REMARK  203  A    between atoms: _496  and  _497
REMARK  204  A    between atoms: _496  and  _499
REMARK  205  A    between atoms: _499  and  _500
REMARK  206  A    between atoms: _503  and  _505
REMARK  207  A    between atoms: _505  and  _506
REMARK  208  A    between atoms: _505  and  _508
REMARK  209  A    between atoms: _508  and  _509
REMARK  210  A    between atoms: _515  and  _516
REMARK  211  A    between atoms: _521  and  _523
REMARK  212  A    between atoms: _523  and  _524
REMARK  213  A    between atoms: _523  and  _526
REMARK  214  A    between atoms: _526  and  _527
REMARK  215  A    between atoms: _530  and  _532
REMARK  216  A    between atoms: _532  and  _533
REMARK  217  A    between atoms: _532  and  _535
REMARK  218  A    between atoms: _535  and  _536
REMARK  219  A    between atoms: _542  and  _544
REMARK  220  A    between atoms: _544  and  _545
REMARK  221  A    between atoms: _544  and  _547
REMARK  222  A    between atoms: _547  and  _548
REMARK  223  A    between atoms: _548  and  _549
REMARK  224  A    between atoms: _552  and  _554
REMARK  225  A    between atoms: _554  and  _555
REMARK  226  A    between atoms: _554  and  _557
REMARK  227  A    between atoms: _557  and  _558
REMARK  228  A    between atoms: _560  and  _562
REMARK  229  A    between atoms: _562  and  _563
REMARK  230  A    between atoms: _562  and  _565
REMARK  231  A    between atoms: _565  and  _566
REMARK  232  A    between atoms: _569  and  _571
REMARK  233  A    between atoms: _571  and  _572
REMARK  234  A    between atoms: _571  and  _574
REMARK  235  A    between atoms: _577  and  _579
REMARK  236  A    between atoms: _579  and  _580
REMARK  237  A    between atoms: _579  and  _582
REMARK  238  A    between atoms: _582  and  _583
REMARK  239  A    between atoms: _588  and  _590
REMARK  240  A    between atoms: _590  and  _591
REMARK  241  A    between atoms: _590  and  _593
REMARK  242  A    between atoms: _593  and  _594
REMARK  243  A    between atoms: _596  and  _598
REMARK  244  A    between atoms: _598  and  _599
REMARK  245  A    between atoms: _598  and  _601
REMARK  246  A    between atoms: _601  and  _602
REMARK  247  A    between atoms: _602  and  _603
REMARK  248  A    between atoms: _606  and  _608
REMARK  249  A    between atoms: _608  and  _609
REMARK  250  A    between atoms: _608  and  _611
REMARK  251  A    between atoms: _611  and  _612
REMARK  252  A    between atoms: _612  and  _613
REMARK  253  A    between atoms: _618  and  _620
REMARK  254  A    between atoms: _620  and  _621
REMARK  255  A    between atoms: _620  and  _623
REMARK  256  A    between atoms: _626  and  _628
REMARK  257  A    between atoms: _628  and  _629
REMARK  258  A    between atoms: _628  and  _631
REMARK  259  A    between atoms: _631  and  _632
REMARK  260  A    between atoms: _638  and  _640
REMARK  261  A    between atoms: _640  and  _641
REMARK  262  A    between atoms: _640  and  _643
REMARK  263  A    between atoms: _643  and  _644
REMARK  264  A    between atoms: _647  and  _649
REMARK  265  A    between atoms: _649  and  _650
REMARK  266  A    between atoms: _649  and  _652
REMARK  267  A    between atoms: _652  and  _653
REMARK  268  A    between atoms: _653  and  _654
REMARK  269  A    between atoms: _654  and  _655
REMARK  270  A    between atoms: _655  and  _656
REMARK  271  A    between atoms: _660  and  _662
REMARK  272  A    between atoms: _662  and  _663
REMARK  273  A    between atoms: _662  and  _665
REMARK  274  A    between atoms: _665  and  _666
REMARK  275  A    between atoms: _666  and  _667
REMARK  276  A    between atoms: _667  and  _668
REMARK  277  A    between atoms: _668  and  _669
REMARK  278  A    between atoms: _673  and  _675
REMARK  279  A    between atoms: _675  and  _676
REMARK  280  A    between atoms: _675  and  _678
REMARK  281  A    between atoms: _678  and  _679
REMARK  282  A    between atoms: _683  and  _684
REMARK  283  A    between atoms: _689  and  _691
REMARK  284  A    between atoms: _691  and  _692
REMARK  285  A    between atoms: _691  and  _694
REMARK  286  A    between atoms: _694  and  _695
REMARK  287  A    between atoms: _698  and  _700
REMARK  288  A    between atoms: _700  and  _701
REMARK  289  A    between atoms: _700  and  _703
REMARK  290  A    between atoms: _703  and  _704
REMARK  291  A    between atoms: _714  and  _716
REMARK  292  A    between atoms: _716  and  _717
REMARK  293  A    between atoms: _716  and  _719
REMARK  294  A    between atoms: _719  and  _720
REMARK                            x       y       z     vdW  Elec       q    Type
REMARK                         _______ _______ _______ _____ _____    ______ ____
ROOT
ATOM      1  CA  LEU A   1      28.293  10.999  -3.241  0.00  0.00    +0.133 C 
ENDROOT
BRANCH   1   2
ATOM      2  N   LEU A   1      27.617  12.274  -3.474  0.00  0.00    -0.239 NA
ATOM      3  H   LEU A   1      28.093  13.165  -3.228  0.00  0.00    +0.142 HD
ENDBRANCH   1   2
BRANCH   1   4
ATOM      4  C   LEU A   1      27.498  10.109  -2.273  0.00  0.00    +0.224 C 
ATOM      5  O   LEU A   1      27.460   8.890  -2.449  0.00  0.00    -0.287 OA
ENDBRANCH   1   4
BRANCH   1   6
ATOM      6  CB  LEU A   1      29.724  11.192  -2.737  0.00  0.00    +0.025 C 
BRANCH   6   7
ATOM      7  CG  LEU A   1      30.751  11.786  -3.710  0.00  0.00    +0.002 C 
ATOM      8  CD2 LEU A   1      32.092  11.950  -2.994  0.00  0.00    +0.000 C 
ATOM      9  CD1 LEU A   1      30.920  10.980  -4.999  0.00  0.00    +0.000 C 
ENDBRANCH   6   7
ENDBRANCH   1   6
TORSDOF 4
REMARK  Name = ../refined-set-2016/3ipq/3ipq_pocket.pdb
REMARK  294 active torsions:
REMARK  status: ('A' for Active; 'I' for Inactive)
REMARK    1  A    between atoms: _1  and  _3
REMARK    2  A    between atoms: _3  and  _4
REMARK    3  A    between atoms: _3  and  _6
REMARK    4  A    between atoms: _6  and  _7
REMARK    5  A    between atoms: _7  and  _8
REMARK    6  A    between atoms: _13  and  _15
REMARK    7  A    between atoms: _15  and  _16
REMARK    8  A    between atoms: _15  and  _18
REMARK    9  A    between atoms: _18  and  _19
REMARK   10  A    between atoms: _19  and  _20
REMARK   11  A    between atoms: _20  and  _21
REMARK   12  A    between atoms: _30  and  _32
REMARK   13  A    between atoms: _32  and  _33
REMARK   14  A    between atoms: _32  and  _35
REMARK   15  A    between atoms: _35  and  _36
REMARK   16  A    between atoms: _42  and  _44
REMARK   17  A    between atoms: _44  and  _45
REMARK   18  A    between atoms: _48  and  _50
REMARK   19  A    between atoms: _50  and  _51
REMARK   20  A    between atoms: _50  and  _53
REMARK   21  A    between atoms: _53  and  _54
REMARK   22  A    between atoms: _59  and  _61
REMARK   23  A    between atoms: _61  and  _62
REMARK   24  A    between atoms: _61  and  _64
REMARK   25  A    between atoms: _64  and  _65
REMARK   26  A    between atoms: _71  and  _73
REMARK   27  A    between atoms: _73  and  _74
REMARK   28  A    between atoms: _73  and  _76
REMARK   29  A    between atoms: _76  and  _77
REMARK   30  A    between atoms: _80  and  _82
REMARK   31  A    between atoms: _82  and  _83
REMARK   32  A    between atoms: _82  and  _85
REMARK   33  A    between atoms: _85  and  _86
REMARK   34  A    between atoms: _86  and  _87
REMARK   35  A    between atoms: _90  and  _92
REMARK   36  A    between atoms: _92  and  _93
REMARK   37  A    between atoms: _92  and  _95
REMARK   38  A    between atoms: _95  and  _96
REMARK   39  A    between atoms: _99  and  _101
REMARK   40  A    between atoms: _101  and  _102
REMARK   41  A    between atoms: _105  and  _107
REMARK   42  A    between atoms: _107  and  _108
REMARK   43  A    between atoms: _107  and  _110
REMARK   44  A    between atoms: _110  and  _111
REMARK   45  A    between atoms: _114  and  _116
REMARK   46  A    between atoms: _116  and  _117
REMARK   47  A    between atoms: _116  and  _119
REMARK   48  A    between atoms: _122  and  _124
REMARK   49  A    between atoms: _124  and  _125
REMARK   50  A    between atoms: _124  and  _127
REMARK   51  A    between atoms: _127  and  _128
REMARK   52  A    between atoms: _130  and  _132
REMARK   53  A    between atoms: _132  and  _133
REMARK   54  A    between atoms: _132  and  _135
REMARK   55  A    between atoms: _138  and  _140
REMARK   56  A    between atoms: _140  and  _141
REMARK   57  A    between atoms: _140  and  _143
REMARK   58  A    between atoms: _143  and  _144
REMARK   59  A    between atoms: _144  and  _145
REMARK   60  A    between atoms: _150  and  _152
REMARK   61  A    between atoms: _152  and  _153
REMARK   62  A    between atoms: _152  and  _155
REMARK   63  A    between atoms: _155  and  _156
REMARK   64  A    between atoms: _156  and  _157
REMARK   65  A    between atoms: _160  and  _162
REMARK   66  A    between atoms: _162  and  _163
REMARK   67  A    between atoms: _162  and  _165
REMARK   68  A    between atoms: _165  and  _166
REMARK   69  A    between atoms: _169  and  _171
REMARK   70  A    between atoms: _171  and  _172
REMARK   71  A    between atoms: _175  and  _177
REMARK   72  A    between atoms: _177  and  _178
REMARK   73  A    between atoms: _177  and  _180
REMARK   74  A    between atoms: _180  and  _181
REMARK   75  A    between atoms: _184  and  _186
REMARK   76  A    between atoms: _186  and  _187
REMARK   77  A    between atoms: _186  and  _189
REMARK   78  A    between atoms: _189  and  _190
REMARK   79  A    between atoms: _190  and  _191
REMARK   80  A    between atoms: _194  and  _196
REMARK   81  A    between atoms: _196  and  _197
REMARK   82  A    between atoms: _196  and  _199
REMARK   83  A    between atoms: _202  and  _204
REMARK   84  A    between atoms: _204  and  _205
REMARK   85  A    between atoms: _204  and  _207
REMARK   86  A    between atoms: _207  and  _208
REMARK   87  A    between atoms: _208  and  _209
REMARK   88  A    between atoms: _211  and  _213
REMARK   89  A    between atoms: _213  and  _214
REMARK   90  A    between atoms: _213  and  _216
REMARK   91  A    between atoms: _216  and  _217
REMARK   92  A    between atoms: _220  and  _222
REMARK   93  A    between atoms: _222  and  _223
REMARK   94  A    between atoms: _222  and  _225
REMARK   95  A    between atoms: _225  and  _226
REMARK   96  A    between atoms: _229  and  _231
REMARK   97  A    between atoms: _231  and  _232
REMARK   98  A    between atoms: _231  and  _234
REMARK   99  A    between atoms: _234  and  _235
REMARK  100  A    between atoms: _235  and  _236
REMARK  101  A    between atoms: _239  and  _241
REMARK  102  A    between atoms: _241  and  _242
REMARK  103  A    between atoms: _241  and  _244
REMARK  104  A    between atoms: _244  and  _245
REMARK  105  A    between atoms: _248  and  _250
REMARK  106  A    between atoms: _250  and  _251
REMARK  107  A    between atoms: _250  and  _253
REMARK  108  A    between atoms: _253  and  _254
REMARK  109  A    between atoms: _256  and  _258
REMARK  110  A    between atoms: _258  and  _259
REMARK  111  A    between atoms: _258  and  _261
REMARK  112  A    between atoms: _261  and  _262
REMARK  113  A    between atoms: _262  and  _263
REMARK  114  A    between atoms: _263  and  _264
REMARK  115  A    between atoms: _273  and  _275
REMARK  116  A    between atoms: _275  and  _276
REMARK  117  A    between atoms: _275  and  _278
REMARK  118  A    between atoms: _278  and  _279
REMARK  119  A    between atoms: _279  and  _280
REMARK  120  A    between atoms: _280  and  _281
REMARK  121  A    between atoms: _290  and  _292
REMARK  122  A    between atoms: _292  and  _293
REMARK  123  A    between atoms: _292  and  _295
REMARK  124  A    between atoms: _295  and  _296
REMARK  125  A    between atoms: _299  and  _301
REMARK  126  A    between atoms: _301  and  _302
REMARK  127  A    between atoms: _301  and  _304
REMARK  128  A    between atoms: _304  and  _305
REMARK  129  A    between atoms: _308  and  _310
REMARK  130  A    between atoms: _310  and  _311
REMARK  131  A    between atoms: _310  and  _313
REMARK  132  A    between atoms: _313  and  _314
REMARK  133  A    between atoms: _320  and  _322
REMARK  134  A    between atoms: _322  and  _323
REMARK  135  A    between atoms: _322  and  _325
REMARK  136  A    between atoms: _325  and  _326
REMARK  137  A    between atoms: _329  and  _331
REMARK  138  A    between atoms: _331  and  _332
REMARK  139  A    between atoms: _331  and  _334
REMARK  140  A    between atoms: _334  and  _335
REMARK  141  A    between atoms: _335  and  _336
REMARK  142  A    between atoms: _336  and  _337
REMARK  143  A    between atoms: _337  and  _338
REMARK  144  A    between atoms: _342  and  _344
REMARK  145  A    between atoms: _344  and  _345
REMARK  146  A    between atoms: _344  and  _347
REMARK  147  A    between atoms: _347  and  _348
REMARK  148  A    between atoms: _351  and  _353
REMARK  149  A    between atoms: _353  and  _354
REMARK  150  A    between atoms: _353  and  _356
REMARK  151  A    between atoms: _356  and  _357
REMARK  152  A    between atoms: _363  and  _365
REMARK  153  A    between atoms: _365  and  _366
REMARK  154  A    between atoms: _365  and  _368
REMARK  155  A    between atoms: _368  and  _369
REMARK  156  A    between atoms: _374  and  _375
REMARK  157  A    between atoms: _377  and  _379
REMARK  158  A    between atoms: _379  and  _380
REMARK  159  A    between atoms: _379  and  _382
REMARK  160  A    between atoms: _382  and  _383
REMARK  161  A    between atoms: _388  and  _390
REMARK  162  A    between atoms: _390  and  _391
REMARK  163  A    between atoms: _390  and  _393
REMARK  164  A    between atoms: _393  and  _394
REMARK  165  A    between atoms: _394  and  _395
REMARK  166  A    between atoms: _395  and  _396
REMARK  167  A    between atoms: _405  and  _407
REMARK  168  A    between atoms: _407  and  _408
REMARK  169  A    between atoms: _407  and  _410
REMARK  170  A    between atoms: _410  and  _411
REMARK  171  A    between atoms: _414  and  _416
REMARK  172  A    between atoms: _416  and  _417
REMARK  173  A    between atoms: _416  and  _419
REMARK  174  A    between atoms: _419  and  _420
REMARK  175  A    between atoms: _426  and  _428
REMARK  176  A    between atoms: _428  and  _429
REMARK  177  A    between atoms: _432  and  _434
REMARK  178  A    between atoms: _434  and  _435
REMARK  179  A    between atoms: _438  and  _440
REMARK  180  A    between atoms: _440  and  _441
REMARK  181  A    between atoms: _443  and  _445
REMARK  182  A    between atoms: _445  and  _446
REMARK  183  A    between atoms: _445  and  _448
REMARK  184  A    between atoms: _448  and  _449
REMARK  185  A    between atoms: _452  and  _454
REMARK  186  A    between atoms: _454  and  _455
REMARK  187  A    between atoms: _454  and  _457
REMARK  188  A    between atoms: _457  and  _458
REMARK  189  A    between atoms: _458  and  _459
REMARK  190  A    between atoms: _464  and  _466
REMARK  191  A    between atoms: _466  and  _467
REMARK  192  A    between atoms: _466  and  _469
REMARK  193  A    between atoms: _472  and  _474
REMARK  194  A    between atoms: _474  and  _475
REMARK  195  A    between atoms: _474  and  _477
REMARK  196  A    between atoms: _477  and  _478
REMARK  197  A    between atoms: _478  and  _479
REMARK  198  A    between atoms: _482  and  _484
REMARK  199  A    between atoms: _484  and  _485
REMARK  200  A    between atoms: _484  and  _487
REMARK  201  A    between atoms: _487  and  _488
REMARK  202  A    between atoms: _494  and  _496
REMARK  203  A    between atoms: _496  and  _497
REMARK  204  A    between atoms: _496  and  _499
REMARK  205  A    between atoms: _499  and  _500
REMARK  206  A    between atoms: _503  and  _505
REMARK  207  A    between atoms: _505  and  _506
REMARK  208  A    between atoms: _505  and  _508
REMARK  209  A    between atoms: _508  and  _509
REMARK  210  A    between atoms: _515  and  _516
REMARK  211  A    between atoms: _521  and  _523
REMARK  212  A    between atoms: _523  and  _524
REMARK  213  A    between atoms: _523  and  _526
REMARK  214  A    between atoms: _526  and  _527
REMARK  215  A    between atoms: _530  and  _532
REMARK  216  A    between atoms: _532  and  _533
REMARK  217  A    between atoms: _532  and  _535
REMARK  218  A    between atoms: _535  and  _536
REMARK  219  A    between atoms: _542  and  _544
REMARK  220  A    between atoms: _544  and  _545
REMARK  221  A    between atoms: _544  and  _547
REMARK  222  A    between atoms: _547  and  _548
REMARK  223  A    between atoms: _548  and  _549
REMARK  224  A    between atoms: _552  and  _554
REMARK  225  A    between atoms: _554  and  _555
REMARK  226  A    between atoms: _554  and  _557
REMARK  227  A    between atoms: _557  and  _558
REMARK  228  A    between atoms: _560  and  _562
REMARK  229  A    between atoms: _562  and  _563
REMARK  230  A    between atoms: _562  and  _565
REMARK  231  A    between atoms: _565  and  _566
REMARK  232  A    between atoms: _569  and  _571
REMARK  233  A    between atoms: _571  and  _572
REMARK  234  A    between atoms: _571  and  _574
REMARK  235  A    between atoms: _577  and  _579
REMARK  236  A    between atoms: _579  and  _580
REMARK  237  A    between atoms: _579  and  _582
REMARK  238  A    between atoms: _582  and  _583
REMARK  239  A    between atoms: _588  and  _590
REMARK  240  A    between atoms: _590  and  _591
REMARK  241  A    between atoms: _590  and  _593
REMARK  242  A    between atoms: _593  and  _594
REMARK  243  A    between atoms: _596  and  _598
REMARK  244  A    between atoms: _598  and  _599
REMARK  245  A    between atoms: _598  and  _601
REMARK  246  A    between atoms: _601  and  _602
REMARK  247  A    between atoms: _602  and  _603
REMARK  248  A    between atoms: _606  and  _608
REMARK  249  A    between atoms: _608  and  _609
REMARK  250  A    between atoms: _608  and  _611
REMARK  251  A    between atoms: _611  and  _612
REMARK  252  A    between atoms: _612  and  _613
REMARK  253  A    between atoms: _618  and  _620
REMARK  254  A    between atoms: _620  and  _621
REMARK  255  A    between atoms: _620  and  _623
REMARK  256  A    between atoms: _626  and  _628
REMARK  257  A    between atoms: _628  and  _629
REMARK  258  A    between atoms: _628  and  _631
REMARK  259  A    between atoms: _631  and  _632
REMARK  260  A    between atoms: _638  and  _640
REMARK  261  A    between atoms: _640  and  _641
REMARK  262  A    between atoms: _640  and  _643
REMARK  263  A    between atoms: _643  and  _644
REMARK  264  A    between atoms: _647  and  _649
REMARK  265  A    between atoms: _649  and  _650
REMARK  266  A    between atoms: _649  and  _652
REMARK  267  A    between atoms: _652  and  _653
REMARK  268  A    between atoms: _653  and  _654
REMARK  269  A    between atoms: _654  and  _655
REMARK  270  A    between atoms: _655  and  _656
REMARK  271  A    between atoms: _660  and  _662
REMARK  272  A    between atoms: _662  and  _663
REMARK  273  A    between atoms: _662  and  _665
REMARK  274  A    between atoms: _665  and  _666
REMARK  275  A    between atoms: _666  and  _667
REMARK  276  A    between atoms: _667  and  _668
REMARK  277  A    between atoms: _668  and  _669
REMARK  278  A    between atoms: _673  and  _675
REMARK  279  A    between atoms: _675  and  _676
REMARK  280  A    between atoms: _675  and  _678
REMARK  281  A    between atoms: _678  and  _679
REMARK  282  A    between atoms: _683  and  _684
REMARK  283  A    between atoms: _689  and  _691
REMARK  284  A    between atoms: _691  and  _692
REMARK  285  A    between atoms: _691  and  _694
REMARK  286  A    between atoms: _694  and  _695
REMARK  287  A    between atoms: _698  and  _700
REMARK  288  A    between atoms: _700  and  _701
REMARK  289  A    between atoms: _700  and  _703
REMARK  290  A    between atoms: _703  and  _704
REMARK  291  A    between atoms: _714  and  _716
REMARK  292  A    between atoms: _716  and  _717
REMARK  293  A    between atoms: _716  and  _719
REMARK  294  A    between atoms: _719  and  _720
REMARK                            x       y       z     vdW  Elec       q    Type
REMARK                         _______ _______ _______ _____ _____    ______ ____
ROOT
ATOM      1  CA  LYS A   2      31.867   5.909   0.440  0.00  0.00    +0.149 C 
ENDROOT
BRANCH   1   4
ATOM      2  C   LYS A   1      30.430   6.565  -1.424  0.00  0.00    +0.238 C 
ATOM      3  O   LYS A   1      30.164   7.664  -0.897  0.00  0.00    -0.274 OA
ATOM      4  N   LYS A   2      31.329   5.720  -0.916  0.00  0.00    -0.297 N 
ATOM      5  H   LYS A   2      31.655   4.915  -1.488  0.00  0.00    +0.150 HD
BRANCH   2   6
ATOM      6  CA  LYS A   1      29.694   6.122  -2.701  0.00  0.00    +0.145 C 
BRANCH   6   7
ATOM      7  N   LYS A   1      28.271   6.158  -2.394  0.00  0.00    -0.238 NA
ATOM      8  H   LYS A   1      27.772   7.067  -2.474  0.00  0.00    +0.142 HD
ENDBRANCH   6   7
BRANCH   6   9
ATOM      9  CB  LYS A   1      29.983   7.053  -3.885  0.00  0.00    +0.026 C 
BRANCH   9  10
ATOM     10  CG  LYS A   1      30.912   6.476  -4.919  0.00  0.00    -0.000 C 
BRANCH  10  11
ATOM     11  CD  LYS A   1      30.890   7.287  -6.227  0.00  0.00    -0.024 C 
BRANCH  11  12
ATOM     12  CE  LYS A   1      31.802   6.634  -7.286  0.00  0.00    -0.086 C 
BRANCH  12  13
ATOM     13  NZ  LYS A   1      32.350   7.609  -8.259  0.00  0.00    +0.380 N 
ATOM     14  HZ1 LYS A   1      32.913   8.323  -7.753  0.00  0.00    -0.089 HD
ATOM     15  HZ2 LYS A   1      31.567   8.075  -8.760  0.00  0.00    -0.089 HD
ATOM     16  HZ3 LYS A   1      32.954   7.111  -8.944  0.00  0.00    -0.089 HD
ENDBRANCH  12  13
ENDBRANCH  11  12
ENDBRANCH  10  11
ENDBRANCH   9  10
ENDBRANCH   6   9
ENDBRANCH   2   6
ENDBRANCH   1   4
BRANCH   1  17
ATOM     17  C   LYS A   2      33.206   6.662   0.459  0.00  0.00    +0.241 C 
ATOM     18  N   LEU A   3      33.250   7.732   1.258  0.00  0.00    -0.297 N 
ATOM     19  H   LEU A   3      32.377   8.049   1.726  0.00  0.00    +0.150 HD
ATOM     20  O   LYS A   2      34.169   6.279  -0.223  0.00  0.00    -0.273 OA
BRANCH  18  21
ATOM     21  CA  LEU A   3      34.486   8.466   1.491  0.00  0.00    +0.149 C 
BRANCH  21  22
ATOM     22  C   LEU A   3      35.321   7.650   2.466  0.00  0.00    +0.244 C 
ATOM     23  O   LEU A   3      34.794   7.067   3.418  0.00  0.00    -0.273 OA
ATOM     24  N   PRO A   4      36.633   7.609   2.251  0.00  0.00    -0.273 N 
ATOM     25  CA  PRO A   4      37.470   6.949   3.226  0.00  0.00    +0.140 C 
ATOM     26  CB  PRO A   4      38.860   7.046   2.612  0.00  0.00    +0.030 C 
ATOM     27  CG  PRO A   4      38.772   8.126   1.611  0.00  0.00    +0.024 C 
ATOM     28  CD  PRO A   4      37.398   8.182   1.134  0.00  0.00    +0.094 C 
BRANCH  25  29
ATOM     29  C   PRO A   4      37.397   7.668   4.590  0.00  0.00    +0.227 C 
ATOM     30  O   PRO A   4      37.005   8.832   4.651  0.00  0.00    -0.286 OA
ENDBRANCH  25  29
ENDBRANCH  21  22
BRANCH  21  31
ATOM     31  CB  LEU A   3      34.191   9.866   2.065  0.00  0.00    +0.029 C 
BRANCH  31  32
ATOM     32  CG  LEU A   3      33.725  10.957   1.090  0.00  0.00    +0.002 C 
ATOM     33  CD2 LEU A   3      33.490  12.284   1.823  0.00  0.00    +0.000 C 
ATOM     34  CD1 LEU A   3      34.745  11.151  -0.019  0.00  0.00    +0.000 C 
ENDBRANCH  31  32
ENDBRANCH  21  31
ENDBRANCH  18  21
ENDBRANCH   1  17
BRANCH   1  35
ATOM     35  CB  LYS A   2      32.013   4.563   1.178  0.00  0.00    +0.029 C 
BRANCH  35  36
ATOM     36  CG  LYS A   2      30.683   3.986   1.709  0.00  0.00    +0.000 C 
BRANCH  36  37
ATOM     37  CD  LYS A   2      30.171   4.720   2.978  0.00  0.00    -0.024 C 
BRANCH  37  38
ATOM     38  CE  LYS A   2      28.777   4.183   3.460  0.00  0.00    -0.086 C 
BRANCH  38  39
ATOM     39  NZ  LYS A   2      27.644   4.385   2.463  0.00  0.00    +0.380 N 
ATOM     40  HZ1 LYS A   2      26.762   4.003   2.860  0.00  0.00    -0.089 HD
ATOM     41  HZ2 LYS A   2      27.528   5.401   2.273  0.00  0.00    -0.089 HD
ATOM     42  HZ3 LYS A   2      27.870   3.889   1.578  0.00  0.00    -0.089 HD
ENDBRANCH  38  39
ENDBRANCH  37  38
ENDBRANCH  36  37
ENDBRANCH  35  36
ENDBRANCH   1  35
TORSDOF 19
REMARK  Name = ../refined-set-2016/3ipq/3ipq_pocket.pdb
REMARK  294 active torsions:
REMARK  status: ('A' for Active; 'I' for Inactive)
REMARK    1  A    between atoms: _1  and  _3
REMARK    2  A    between atoms: _3  and  _4
REMARK    3  A    between atoms: _3  and  _6
REMARK    4  A    between atoms: _6  and  _7
REMARK    5  A    between atoms: _7  and  _8
REMARK    6  A    between atoms: _13  and  _15
REMARK    7  A    between atoms: _15  and  _16
REMARK    8  A    between atoms: _15  and  _18
REMARK    9  A    between atoms: _18  and  _19
REMARK   10  A    between atoms: _19  and  _20
REMARK   11  A    between atoms: _20  and  _21
REMARK   12  A    between atoms: _30  and  _32
REMARK   13  A    between atoms: _32  and  _33
REMARK   14  A    between atoms: _32  and  _35
REMARK   15  A    between atoms: _35  and  _36
REMARK   16  A    between atoms: _42  and  _44
REMARK   17  A    between atoms: _44  and  _45
REMARK   18  A    between atoms: _48  and  _50
REMARK   19  A    between atoms: _50  and  _51
REMARK   20  A    between atoms: _50  and  _53
REMARK   21  A    between atoms: _53  and  _54
REMARK   22  A    between atoms: _59  and  _61
REMARK   23  A    between atoms: _61  and  _62
REMARK   24  A    between atoms: _61  and  _64
REMARK   25  A    between atoms: _64  and  _65
REMARK   26  A    between atoms: _71  and  _73
REMARK   27  A    between atoms: _73  and  _74
REMARK   28  A    between atoms: _73  and  _76
REMARK   29  A    between atoms: _76  and  _77
REMARK   30  A    between atoms: _80  and  _82
REMARK   31  A    between atoms: _82  and  _83
REMARK   32  A    between atoms: _82  and  _85
REMARK   33  A    between atoms: _85  and  _86
REMARK   34  A    between atoms: _86  and  _87
REMARK   35  A    between atoms: _90  and  _92
REMARK   36  A    between atoms: _92  and  _93
REMARK   37  A    between atoms: _92  and  _95
REMARK   38  A    between atoms: _95  and  _96
REMARK   39  A    between atoms: _99  and  _101
REMARK   40  A    between atoms: _101  and  _102
REMARK   41  A    between atoms: _105  and  _107
REMARK   42  A    between atoms: _107  and  _108
REMARK   43  A    between atoms: _107  and  _110
REMARK   44  A    between atoms: _110  and  _111
REMARK   45  A    between atoms: _114  and  _116
REMARK   46  A    between atoms: _116  and  _117
REMARK   47  A    between atoms: _116  and  _119
REMARK   48  A    between atoms: _122  and  _124
REMARK   49  A    between atoms: _124  and  _125
REMARK   50  A    between atoms: _124  and  _127
REMARK   51  A    between atoms: _127  and  _128
REMARK   52  A    between atoms: _130  and  _132
REMARK   53  A    between atoms: _132  and  _133
REMARK   54  A    between atoms: _132  and  _135
REMARK   55  A    between atoms: _138  and  _140
REMARK   56  A    between atoms: _140  and  _141
REMARK   57  A    between atoms: _140  and  _143
REMARK   58  A    between atoms: _143  and  _144
REMARK   59  A    between atoms: _144  and  _145
REMARK   60  A    between atoms: _150  and  _152
REMARK   61  A    between atoms: _152  and  _153
REMARK   62  A    between atoms: _152  and  _155
REMARK   63  A    between atoms: _155  and  _156
REMARK   64  A    between atoms: _156  and  _157
REMARK   65  A    between atoms: _160  and  _162
REMARK   66  A    between atoms: _162  and  _163
REMARK   67  A    between atoms: _162  and  _165
REMARK   68  A    between atoms: _165  and  _166
REMARK   69  A    between atoms: _169  and  _171
REMARK   70  A    between atoms: _171  and  _172
REMARK   71  A    between atoms: _175  and  _177
REMARK   72  A    between atoms: _177  and  _178
REMARK   73  A    between atoms: _177  and  _180
REMARK   74  A    between atoms: _180  and  _181
REMARK   75  A    between atoms: _184  and  _186
REMARK   76  A    between atoms: _186  and  _187
REMARK   77  A    between atoms: _186  and  _189
REMARK   78  A    between atoms: _189  and  _190
REMARK   79  A    between atoms: _190  and  _191
REMARK   80  A    between atoms: _194  and  _196
REMARK   81  A    between atoms: _196  and  _197
REMARK   82  A    between atoms: _196  and  _199
REMARK   83  A    between atoms: _202  and  _204
REMARK   84  A    between atoms: _204  and  _205
REMARK   85  A    between atoms: _204  and  _207
REMARK   86  A    between atoms: _207  and  _208
REMARK   87  A    between atoms: _208  and  _209
REMARK   88  A    between atoms: _211  and  _213
REMARK   89  A    between atoms: _213  and  _214
REMARK   90  A    between atoms: _213  and  _216
REMARK   91  A    between atoms: _216  and  _217
REMARK   92  A    between atoms: _220  and  _222
REMARK   93  A    between atoms: _222  and  _223
REMARK   94  A    between atoms: _222  and  _225
REMARK   95  A    between atoms: _225  and  _226
REMARK   96  A    between atoms: _229  and  _231
REMARK   97  A    between atoms: _231  and  _232
REMARK   98  A    between atoms: _231  and  _234
REMARK   99  A    between atoms: _234  and  _235
REMARK  100  A    between atoms: _235  and  _236
REMARK  101  A    between atoms: _239  and  _241
REMARK  102  A    between atoms: _241  and  _242
REMARK  103  A    between atoms: _241  and  _244
REMARK  104  A    between atoms: _244  and  _245
REMARK  105  A    between atoms: _248  and  _250
REMARK  106  A    between atoms: _250  and  _251
REMARK  107  A    between atoms: _250  and  _253
REMARK  108  A    between atoms: _253  and  _254
REMARK  109  A    between atoms: _256  and  _258
REMARK  110  A    between atoms: _258  and  _259
REMARK  111  A    between atoms: _258  and  _261
REMARK  112  A    between atoms: _261  and  _262
REMARK  113  A    between atoms: _262  and  _263
REMARK  114  A    between atoms: _263  and  _264
REMARK  115  A    between atoms: _273  and  _275
REMARK  116  A    between atoms: _275  and  _276
REMARK  117  A    between atoms: _275  and  _278
REMARK  118  A    between atoms: _278  and  _279
REMARK  119  A    between atoms: _279  and  _280
REMARK  120  A    between atoms: _280  and  _281
REMARK  121  A    between atoms: _290  and  _292
REMARK  122  A    between atoms: _292  and  _293
REMARK  123  A    between atoms: _292  and  _295
REMARK  124  A    between atoms: _295  and  _296
REMARK  125  A    between atoms: _299  and  _301
REMARK  126  A    between atoms: _301  and  _302
REMARK  127  A    between atoms: _301  and  _304
REMARK  128  A    between atoms: _304  and  _305
REMARK  129  A    between atoms: _308  and  _310
REMARK  130  A    between atoms: _310  and  _311
REMARK  131  A    between atoms: _310  and  _313
REMARK  132  A    between atoms: _313  and  _314
REMARK  133  A    between atoms: _320  and  _322
REMARK  134  A    between atoms: _322  and  _323
REMARK  135  A    between atoms: _322  and  _325
REMARK  136  A    between atoms: _325  and  _326
REMARK  137  A    between atoms: _329  and  _331
REMARK  138  A    between atoms: _331  and  _332
REMARK  139  A    between atoms: _331  and  _334
REMARK  140  A    between atoms: _334  and  _335
REMARK  141  A    between atoms: _335  and  _336
REMARK  142  A    between atoms: _336  and  _337
REMARK  143  A    between atoms: _337  and  _338
REMARK  144  A    between atoms: _342  and  _344
REMARK  145  A    between atoms: _344  and  _345
REMARK  146  A    between atoms: _344  and  _347
REMARK  147  A    between atoms: _347  and  _348
REMARK  148  A    between atoms: _351  and  _353
REMARK  149  A    between atoms: _353  and  _354
REMARK  150  A    between atoms: _353  and  _356
REMARK  151  A    between atoms: _356  and  _357
REMARK  152  A    between atoms: _363  and  _365
REMARK  153  A    between atoms: _365  and  _366
REMARK  154  A    between atoms: _365  and  _368
REMARK  155  A    between atoms: _368  and  _369
REMARK  156  A    between atoms: _374  and  _375
REMARK  157  A    between atoms: _377  and  _379
REMARK  158  A    between atoms: _379  and  _380
REMARK  159  A    between atoms: _379  and  _382
REMARK  160  A    between atoms: _382  and  _383
REMARK  161  A    between atoms: _388  and  _390
REMARK  162  A    between atoms: _390  and  _391
REMARK  163  A    between atoms: _390  and  _393
REMARK  164  A    between atoms: _393  and  _394
REMARK  165  A    between atoms: _394  and  _395
REMARK  166  A    between atoms: _395  and  _396
REMARK  167  A    between atoms: _405  and  _407
REMARK  168  A    between atoms: _407  and  _408
REMARK  169  A    between atoms: _407  and  _410
REMARK  170  A    between atoms: _410  and  _411
REMARK  171  A    between atoms: _414  and  _416
REMARK  172  A    between atoms: _416  and  _417
REMARK  173  A    between atoms: _416  and  _419
REMARK  174  A    between atoms: _419  and  _420
REMARK  175  A    between atoms: _426  and  _428
REMARK  176  A    between atoms: _428  and  _429
REMARK  177  A    between atoms: _432  and  _434
REMARK  178  A    between atoms: _434  and  _435
REMARK  179  A    between atoms: _438  and  _440
REMARK  180  A    between atoms: _440  and  _441
REMARK  181  A    between atoms: _443  and  _445
REMARK  182  A    between atoms: _445  and  _446
REMARK  183  A    between atoms: _445  and  _448
REMARK  184  A    between atoms: _448  and  _449
REMARK  185  A    between atoms: _452  and  _454
REMARK  186  A    between atoms: _454  and  _455
REMARK  187  A    between atoms: _454  and  _457
REMARK  188  A    between atoms: _457  and  _458
REMARK  189  A    between atoms: _458  and  _459
REMARK  190  A    between atoms: _464  and  _466
REMARK  191  A    between atoms: _466  and  _467
REMARK  192  A    between atoms: _466  and  _469
REMARK  193  A    between atoms: _472  and  _474
REMARK  194  A    between atoms: _474  and  _475
REMARK  195  A    between atoms: _474  and  _477
REMARK  196  A    between atoms: _477  and  _478
REMARK  197  A    between atoms: _478  and  _479
REMARK  198  A    between atoms: _482  and  _484
REMARK  199  A    between atoms: _484  and  _485
REMARK  200  A    between atoms: _484  and  _487
REMARK  201  A    between atoms: _487  and  _488
REMARK  202  A    between atoms: _494  and  _496
REMARK  203  A    between atoms: _496  and  _497
REMARK  204  A    between atoms: _496  and  _499
REMARK  205  A    between atoms: _499  and  _500
REMARK  206  A    between atoms: _503  and  _505
REMARK  207  A    between atoms: _505  and  _506
REMARK  208  A    between atoms: _505  and  _508
REMARK  209  A    between atoms: _508  and  _509
REMARK  210  A    between atoms: _515  and  _516
REMARK  211  A    between atoms: _521  and  _523
REMARK  212  A    between atoms: _523  and  _524
REMARK  213  A    between atoms: _523  and  _526
REMARK  214  A    between atoms: _526  and  _527
REMARK  215  A    between atoms: _530  and  _532
REMARK  216  A    between atoms: _532  and  _533
REMARK  217  A    between atoms: _532  and  _535
REMARK  218  A    between atoms: _535  and  _536
REMARK  219  A    between atoms: _542  and  _544
REMARK  220  A    between atoms: _544  and  _545
REMARK  221  A    between atoms: _544  and  _547
REMARK  222  A    between atoms: _547  and  _548
REMARK  223  A    between atoms: _548  and  _549
REMARK  224  A    between atoms: _552  and  _554
REMARK  225  A    between atoms: _554  and  _555
REMARK  226  A    between atoms: _554  and  _557
REMARK  227  A    between atoms: _557  and  _558
REMARK  228  A    between atoms: _560  and  _562
REMARK  229  A    between atoms: _562  and  _563
REMARK  230  A    between atoms: _562  and  _565
REMARK  231  A    between atoms: _565  and  _566
REMARK  232  A    between atoms: _569  and  _571
REMARK  233  A    between atoms: _571  and  _572
REMARK  234  A    between atoms: _571  and  _574
REMARK  235  A    between atoms: _577  and  _579
REMARK  236  A    between atoms: _579  and  _580
REMARK  237  A    between atoms: _579  and  _582
REMARK  238  A    between atoms: _582  and  _583
REMARK  239  A    between atoms: _588  and  _590
REMARK  240  A    between atoms: _590  and  _591
REMARK  241  A    between atoms: _590  and  _593
REMARK  242  A    between atoms: _593  and  _594
REMARK  243  A    between atoms: _596  and  _598
REMARK  244  A    between atoms: _598  and  _599
REMARK  245  A    between atoms: _598  and  _601
REMARK  246  A    between atoms: _601  and  _602
REMARK  247  A    between atoms: _602  and  _603
REMARK  248  A    between atoms: _606  and  _608
REMARK  249  A    between atoms: _608  and  _609
REMARK  250  A    between atoms: _608  and  _611
REMARK  251  A    between atoms: _611  and  _612
REMARK  252  A    between atoms: _612  and  _613
REMARK  253  A    between atoms: _618  and  _620
REMARK  254  A    between atoms: _620  and  _621
REMARK  255  A    between atoms: _620  and  _623
REMARK  256  A    between atoms: _626  and  _628
REMARK  257  A    between atoms: _628  and  _629
REMARK  258  A    between atoms: _628  and  _631
REMARK  259  A    between atoms: _631  and  _632
REMARK  260  A    between atoms: _638  and  _640
REMARK  261  A    between atoms: _640  and  _641
REMARK  262  A    between atoms: _640  and  _643
REMARK  263  A    between atoms: _643  and  _644
REMARK  264  A    between atoms: _647  and  _649
REMARK  265  A    between atoms: _649  and  _650
REMARK  266  A    between atoms: _649  and  _652
REMARK  267  A    between atoms: _652  and  _653
REMARK  268  A    between atoms: _653  and  _654
REMARK  269  A    between atoms: _654  and  _655
REMARK  270  A    between atoms: _655  and  _656
REMARK  271  A    between atoms: _660  and  _662
REMARK  272  A    between atoms: _662  and  _663
REMARK  273  A    between atoms: _662  and  _665
REMARK  274  A    between atoms: _665  and  _666
REMARK  275  A    between atoms: _666  and  _667
REMARK  276  A    between atoms: _667  and  _668
REMARK  277  A    between atoms: _668  and  _669
REMARK  278  A    between atoms: _673  and  _675
REMARK  279  A    between atoms: _675  and  _676
REMARK  280  A    between atoms: _675  and  _678
REMARK  281  A    between atoms: _678  and  _679
REMARK  282  A    between atoms: _683  and  _684
REMARK  283  A    between atoms: _689  and  _691
REMARK  284  A    between atoms: _691  and  _692
REMARK  285  A    between atoms: _691  and  _694
REMARK  286  A    between atoms: _694  and  _695
REMARK  287  A    between atoms: _698  and  _700
REMARK  288  A    between atoms: _700  and  _701
REMARK  289  A    between atoms: _700  and  _703
REMARK  290  A    between atoms: _703  and  _704
REMARK  291  A    between atoms: _714  and  _716
REMARK  292  A    between atoms: _716  and  _717
REMARK  293  A    between atoms: _716  and  _719
REMARK  294  A    between atoms: _719  and  _720
REMARK                            x       y       z     vdW  Elec       q    Type
REMARK                         _______ _______ _______ _____ _____    ______ ____
ROOT
ATOM      1  CA  LEU A   1      37.713  12.368   4.397  0.00  0.00    +0.133 C 
ENDROOT
BRANCH   1   2
ATOM      2  N   LEU A   1      38.556  11.485   5.184  0.00  0.00    -0.239 NA
ATOM      3  H   LEU A   1      38.964  10.637   4.742  0.00  0.00    +0.142 HD
ENDBRANCH   1   2
BRANCH   1   4
ATOM      4  C   LEU A   1      36.289  12.394   4.943  0.00  0.00    +0.224 C 
ATOM      5  O   LEU A   1      35.689  13.456   5.056  0.00  0.00    -0.287 OA
ENDBRANCH   1   4
BRANCH   1   6
ATOM      6  CB  LEU A   1      37.755  12.016   2.904  0.00  0.00    +0.025 C 
BRANCH   6   7
ATOM      7  CG  LEU A   1      39.160  11.960   2.269  0.00  0.00    +0.002 C 
ATOM      8  CD2 LEU A   1      39.965  13.187   2.658  0.00  0.00    +0.000 C 
ATOM      9  CD1 LEU A   1      39.042  11.799   0.735  0.00  0.00    +0.000 C 
ENDBRANCH   6   7
ENDBRANCH   1   6
TORSDOF 4
REMARK  Name = ../refined-set-2016/3ipq/3ipq_pocket.pdb
REMARK  294 active torsions:
REMARK  status: ('A' for Active; 'I' for Inactive)
REMARK    1  A    between atoms: _1  and  _3
REMARK    2  A    between atoms: _3  and  _4
REMARK    3  A    between atoms: _3  and  _6
REMARK    4  A    between atoms: _6  and  _7
REMARK    5  A    between atoms: _7  and  _8
REMARK    6  A    between atoms: _13  and  _15
REMARK    7  A    between atoms: _15  and  _16
REMARK    8  A    between atoms: _15  and  _18
REMARK    9  A    between atoms: _18  and  _19
REMARK   10  A    between atoms: _19  and  _20
REMARK   11  A    between atoms: _20  and  _21
REMARK   12  A    between atoms: _30  and  _32
REMARK   13  A    between atoms: _32  and  _33
REMARK   14  A    between atoms: _32  and  _35
REMARK   15  A    between atoms: _35  and  _36
REMARK   16  A    between atoms: _42  and  _44
REMARK   17  A    between atoms: _44  and  _45
REMARK   18  A    between atoms: _48  and  _50
REMARK   19  A    between atoms: _50  and  _51
REMARK   20  A    between atoms: _50  and  _53
REMARK   21  A    between atoms: _53  and  _54
REMARK   22  A    between atoms: _59  and  _61
REMARK   23  A    between atoms: _61  and  _62
REMARK   24  A    between atoms: _61  and  _64
REMARK   25  A    between atoms: _64  and  _65
REMARK   26  A    between atoms: _71  and  _73
REMARK   27  A    between atoms: _73  and  _74
REMARK   28  A    between atoms: _73  and  _76
REMARK   29  A    between atoms: _76  and  _77
REMARK   30  A    between atoms: _80  and  _82
REMARK   31  A    between atoms: _82  and  _83
REMARK   32  A    between atoms: _82  and  _85
REMARK   33  A    between atoms: _85  and  _86
REMARK   34  A    between atoms: _86  and  _87
REMARK   35  A    between atoms: _90  and  _92
REMARK   36  A    between atoms: _92  and  _93
REMARK   37  A    between atoms: _92  and  _95
REMARK   38  A    between atoms: _95  and  _96
REMARK   39  A    between atoms: _99  and  _101
REMARK   40  A    between atoms: _101  and  _102
REMARK   41  A    between atoms: _105  and  _107
REMARK   42  A    between atoms: _107  and  _108
REMARK   43  A    between atoms: _107  and  _110
REMARK   44  A    between atoms: _110  and  _111
REMARK   45  A    between atoms: _114  and  _116
REMARK   46  A    between atoms: _116  and  _117
REMARK   47  A    between atoms: _116  and  _119
REMARK   48  A    between atoms: _122  and  _124
REMARK   49  A    between atoms: _124  and  _125
REMARK   50  A    between atoms: _124  and  _127
REMARK   51  A    between atoms: _127  and  _128
REMARK   52  A    between atoms: _130  and  _132
REMARK   53  A    between atoms: _132  and  _133
REMARK   54  A    between atoms: _132  and  _135
REMARK   55  A    between atoms: _138  and  _140
REMARK   56  A    between atoms: _140  and  _141
REMARK   57  A    between atoms: _140  and  _143
REMARK   58  A    between atoms: _143  and  _144
REMARK   59  A    between atoms: _144  and  _145
REMARK   60  A    between atoms: _150  and  _152
REMARK   61  A    between atoms: _152  and  _153
REMARK   62  A    between atoms: _152  and  _155
REMARK   63  A    between atoms: _155  and  _156
REMARK   64  A    between atoms: _156  and  _157
REMARK   65  A    between atoms: _160  and  _162
REMARK   66  A    between atoms: _162  and  _163
REMARK   67  A    between atoms: _162  and  _165
REMARK   68  A    between atoms: _165  and  _166
REMARK   69  A    between atoms: _169  and  _171
REMARK   70  A    between atoms: _171  and  _172
REMARK   71  A    between atoms: _175  and  _177
REMARK   72  A    between atoms: _177  and  _178
REMARK   73  A    between atoms: _177  and  _180
REMARK   74  A    between atoms: _180  and  _181
REMARK   75  A    between atoms: _184  and  _186
REMARK   76  A    between atoms: _186  and  _187
REMARK   77  A    between atoms: _186  and  _189
REMARK   78  A    between atoms: _189  and  _190
REMARK   79  A    between atoms: _190  and  _191
REMARK   80  A    between atoms: _194  and  _196
REMARK   81  A    between atoms: _196  and  _197
REMARK   82  A    between atoms: _196  and  _199
REMARK   83  A    between atoms: _202  and  _204
REMARK   84  A    between atoms: _204  and  _205
REMARK   85  A    between atoms: _204  and  _207
REMARK   86  A    between atoms: _207  and  _208
REMARK   87  A    between atoms: _208  and  _209
REMARK   88  A    between atoms: _211  and  _213
REMARK   89  A    between atoms: _213  and  _214
REMARK   90  A    between atoms: _213  and  _216
REMARK   91  A    between atoms: _216  and  _217
REMARK   92  A    between atoms: _220  and  _222
REMARK   93  A    between atoms: _222  and  _223
REMARK   94  A    between atoms: _222  and  _225
REMARK   95  A    between atoms: _225  and  _226
REMARK   96  A    between atoms: _229  and  _231
REMARK   97  A    between atoms: _231  and  _232
REMARK   98  A    between atoms: _231  and  _234
REMARK   99  A    between atoms: _234  and  _235
REMARK  100  A    between atoms: _235  and  _236
REMARK  101  A    between atoms: _239  and  _241
REMARK  102  A    between atoms: _241  and  _242
REMARK  103  A    between atoms: _241  and  _244
REMARK  104  A    between atoms: _244  and  _245
REMARK  105  A    between atoms: _248  and  _250
REMARK  106  A    between atoms: _250  and  _251
REMARK  107  A    between atoms: _250  and  _253
REMARK  108  A    between atoms: _253  and  _254
REMARK  109  A    between atoms: _256  and  _258
REMARK  110  A    between atoms: _258  and  _259
REMARK  111  A    between atoms: _258  and  _261
REMARK  112  A    between atoms: _261  and  _262
REMARK  113  A    between atoms: _262  and  _263
REMARK  114  A    between atoms: _263  and  _264
REMARK  115  A    between atoms: _273  and  _275
REMARK  116  A    between atoms: _275  and  _276
REMARK  117  A    between atoms: _275  and  _278
REMARK  118  A    between atoms: _278  and  _279
REMARK  119  A    between atoms: _279  and  _280
REMARK  120  A    between atoms: _280  and  _281
REMARK  121  A    between atoms: _290  and  _292
REMARK  122  A    between atoms: _292  and  _293
REMARK  123  A    between atoms: _292  and  _295
REMARK  124  A    between atoms: _295  and  _296
REMARK  125  A    between atoms: _299  and  _301
REMARK  126  A    between atoms: _301  and  _302
REMARK  127  A    between atoms: _301  and  _304
REMARK  128  A    between atoms: _304  and  _305
REMARK  129  A    between atoms: _308  and  _310
REMARK  130  A    between atoms: _310  and  _311
REMARK  131  A    between atoms: _310  and  _313
REMARK  132  A    between atoms: _313  and  _314
REMARK  133  A    between atoms: _320  and  _322
REMARK  134  A    between atoms: _322  and  _323
REMARK  135  A    between atoms: _322  and  _325
REMARK  136  A    between atoms: _325  and  _326
REMARK  137  A    between atoms: _329  and  _331
REMARK  138  A    between atoms: _331  and  _332
REMARK  139  A    between atoms: _331  and  _334
REMARK  140  A    between atoms: _334  and  _335
REMARK  141  A    between atoms: _335  and  _336
REMARK  142  A    between atoms: _336  and  _337
REMARK  143  A    between atoms: _337  and  _338
REMARK  144  A    between atoms: _342  and  _344
REMARK  145  A    between atoms: _344  and  _345
REMARK  146  A    between atoms: _344  and  _347
REMARK  147  A    between atoms: _347  and  _348
REMARK  148  A    between atoms: _351  and  _353
REMARK  149  A    between atoms: _353  and  _354
REMARK  150  A    between atoms: _353  and  _356
REMARK  151  A    between atoms: _356  and  _357
REMARK  152  A    between atoms: _363  and  _365
REMARK  153  A    between atoms: _365  and  _366
REMARK  154  A    between atoms: _365  and  _368
REMARK  155  A    between atoms: _368  and  _369
REMARK  156  A    between atoms: _374  and  _375
REMARK  157  A    between atoms: _377  and  _379
REMARK  158  A    between atoms: _379  and  _380
REMARK  159  A    between atoms: _379  and  _382
REMARK  160  A    between atoms: _382  and  _383
REMARK  161  A    between atoms: _388  and  _390
REMARK  162  A    between atoms: _390  and  _391
REMARK  163  A    between atoms: _390  and  _393
REMARK  164  A    between atoms: _393  and  _394
REMARK  165  A    between atoms: _394  and  _395
REMARK  166  A    between atoms: _395  and  _396
REMARK  167  A    between atoms: _405  and  _407
REMARK  168  A    between atoms: _407  and  _408
REMARK  169  A    between atoms: _407  and  _410
REMARK  170  A    between atoms: _410  and  _411
REMARK  171  A    between atoms: _414  and  _416
REMARK  172  A    between atoms: _416  and  _417
REMARK  173  A    between atoms: _416  and  _419
REMARK  174  A    between atoms: _419  and  _420
REMARK  175  A    between atoms: _426  and  _428
REMARK  176  A    between atoms: _428  and  _429
REMARK  177  A    between atoms: _432  and  _434
REMARK  178  A    between atoms: _434  and  _435
REMARK  179  A    between atoms: _438  and  _440
REMARK  180  A    between atoms: _440  and  _441
REMARK  181  A    between atoms: _443  and  _445
REMARK  182  A    between atoms: _445  and  _446
REMARK  183  A    between atoms: _445  and  _448
REMARK  184  A    between atoms: _448  and  _449
REMARK  185  A    between atoms: _452  and  _454
REMARK  186  A    between atoms: _454  and  _455
REMARK  187  A    between atoms: _454  and  _457
REMARK  188  A    between atoms: _457  and  _458
REMARK  189  A    between atoms: _458  and  _459
REMARK  190  A    between atoms: _464  and  _466
REMARK  191  A    between atoms: _466  and  _467
REMARK  192  A    between atoms: _466  and  _469
REMARK  193  A    between atoms: _472  and  _474
REMARK  194  A    between atoms: _474  and  _475
REMARK  195  A    between atoms: _474  and  _477
REMARK  196  A    between atoms: _477  and  _478
REMARK  197  A    between atoms: _478  and  _479
REMARK  198  A    between atoms: _482  and  _484
REMARK  199  A    between atoms: _484  and  _485
REMARK  200  A    between atoms: _484  and  _487
REMARK  201  A    between atoms: _487  and  _488
REMARK  202  A    between atoms: _494  and  _496
REMARK  203  A    between atoms: _496  and  _497
REMARK  204  A    between atoms: _496  and  _499
REMARK  205  A    between atoms: _499  and  _500
REMARK  206  A    between atoms: _503  and  _505
REMARK  207  A    between atoms: _505  and  _506
REMARK  208  A    between atoms: _505  and  _508
REMARK  209  A    between atoms: _508  and  _509
REMARK  210  A    between atoms: _515  and  _516
REMARK  211  A    between atoms: _521  and  _523
REMARK  212  A    between atoms: _523  and  _524
REMARK  213  A    between atoms: _523  and  _526
REMARK  214  A    between atoms: _526  and  _527
REMARK  215  A    between atoms: _530  and  _532
REMARK  216  A    between atoms: _532  and  _533
REMARK  217  A    between atoms: _532  and  _535
REMARK  218  A    between atoms: _535  and  _536
REMARK  219  A    between atoms: _542  and  _544
REMARK  220  A    between atoms: _544  and  _545
REMARK  221  A    between atoms: _544  and  _547
REMARK  222  A    between atoms: _547  and  _548
REMARK  223  A    between atoms: _548  and  _549
REMARK  224  A    between atoms: _552  and  _554
REMARK  225  A    between atoms: _554  and  _555
REMARK  226  A    between atoms: _554  and  _557
REMARK  227  A    between atoms: _557  and  _558
REMARK  228  A    between atoms: _560  and  _562
REMARK  229  A    between atoms: _562  and  _563
REMARK  230  A    between atoms: _562  and  _565
REMARK  231  A    between atoms: _565  and  _566
REMARK  232  A    between atoms: _569  and  _571
REMARK  233  A    between atoms: _571  and  _572
REMARK  234  A    between atoms: _571  and  _574
REMARK  235  A    between atoms: _577  and  _579
REMARK  236  A    between atoms: _579  and  _580
REMARK  237  A    between atoms: _579  and  _582
REMARK  238  A    between atoms: _582  and  _583
REMARK  239  A    between atoms: _588  and  _590
REMARK  240  A    between atoms: _590  and  _591
REMARK  241  A    between atoms: _590  and  _593
REMARK  242  A    between atoms: _593  and  _594
REMARK  243  A    between atoms: _596  and  _598
REMARK  244  A    between atoms: _598  and  _599
REMARK  245  A    between atoms: _598  and  _601
REMARK  246  A    between atoms: _601  and  _602
REMARK  247  A    between atoms: _602  and  _603
REMARK  248  A    between atoms: _606  and  _608
REMARK  249  A    between atoms: _608  and  _609
REMARK  250  A    between atoms: _608  and  _611
REMARK  251  A    between atoms: _611  and  _612
REMARK  252  A    between atoms: _612  and  _613
REMARK  253  A    between atoms: _618  and  _620
REMARK  254  A    between atoms: _620  and  _621
REMARK  255  A    between atoms: _620  and  _623
REMARK  256  A    between atoms: _626  and  _628
REMARK  257  A    between atoms: _628  and  _629
REMARK  258  A    between atoms: _628  and  _631
REMARK  259  A    between atoms: _631  and  _632
REMARK  260  A    between atoms: _638  and  _640
REMARK  261  A    between atoms: _640  and  _641
REMARK  262  A    between atoms: _640  and  _643
REMARK  263  A    between atoms: _643  and  _644
REMARK  264  A    between atoms: _647  and  _649
REMARK  265  A    between atoms: _649  and  _650
REMARK  266  A    between atoms: _649  and  _652
REMARK  267  A    between atoms: _652  and  _653
REMARK  268  A    between atoms: _653  and  _654
REMARK  269  A    between atoms: _654  and  _655
REMARK  270  A    between atoms: _655  and  _656
REMARK  271  A    between atoms: _660  and  _662
REMARK  272  A    between atoms: _662  and  _663
REMARK  273  A    between atoms: _662  and  _665
REMARK  274  A    between atoms: _665  and  _666
REMARK  275  A    between atoms: _666  and  _667
REMARK  276  A    between atoms: _667  and  _668
REMARK  277  A    between atoms: _668  and  _669
REMARK  278  A    between atoms: _673  and  _675
REMARK  279  A    between atoms: _675  and  _676
REMARK  280  A    between atoms: _675  and  _678
REMARK  281  A    between atoms: _678  and  _679
REMARK  282  A    between atoms: _683  and  _684
REMARK  283  A    between atoms: _689  and  _691
REMARK  284  A    between atoms: _691  and  _692
REMARK  285  A    between atoms: _691  and  _694
REMARK  286  A    between atoms: _694  and  _695
REMARK  287  A    between atoms: _698  and  _700
REMARK  288  A    between atoms: _700  and  _701
REMARK  289  A    between atoms: _700  and  _703
REMARK  290  A    between atoms: _703  and  _704
REMARK  291  A    between atoms: _714  and  _716
REMARK  292  A    between atoms: _716  and  _717
REMARK  293  A    between atoms: _716  and  _719
REMARK  294  A    between atoms: _719  and  _720
REMARK                            x       y       z     vdW  Elec       q    Type
REMARK                         _______ _______ _______ _____ _____    ______ ____
ROOT
ATOM      1  CA  TRP A   1      33.342  16.356   5.343  0.00  0.00    +0.149 C 
ENDROOT
BRANCH   1   2
ATOM      2  C   TRP A   1      31.917  15.806   5.438  0.00  0.00    +0.239 C 
ATOM      3  N   ASP A   2      31.736  14.536   5.803  0.00  0.00    -0.298 N 
ATOM      4  H   ASP A   2      32.553  13.932   6.026  0.00  0.00    +0.150 HD
ATOM      5  O   TRP A   1      30.974  16.522   5.128  0.00  0.00    -0.274 OA
BRANCH   3   6
ATOM      6  CA  ASP A   2      30.371  13.998   5.887  0.00  0.00    +0.148 C 
BRANCH   6   7
ATOM      7  C   ASP A   2      29.570  14.647   7.023  0.00  0.00    +0.227 C 
ATOM      8  O   ASP A   2      30.134  15.024   8.087  0.00  0.00    -0.286 OA
ENDBRANCH   6   7
BRANCH   6   9
ATOM      9  CB  ASP A   2      30.356  12.460   5.997  0.00  0.00    +0.142 C 
BRANCH   9  10
ATOM     10  CG  ASP A   2      30.511  11.803   4.659  0.00  0.00    +0.367 C 
ATOM     11  OD2 ASP A   2      31.221  10.788   4.598  0.00  0.00    -0.246 OA
ATOM     12  OD1 ASP A   2      29.958  12.339   3.661  0.00  0.00    -0.246 OA
ENDBRANCH   9  10
ENDBRANCH   6   9
ENDBRANCH   3   6
ENDBRANCH   1   2
BRANCH   1  13
ATOM     13  N   TRP A   1      34.387  15.892   6.282  0.00  0.00    -0.238 NA
ATOM     14  H   TRP A   1      34.728  14.912   6.208  0.00  0.00    +0.142 HD
ENDBRANCH   1  13
BRANCH   1  15
ATOM     15  CB  TRP A   1      33.813  16.153   3.893  0.00  0.00    +0.054 C 
BRANCH  15  16
ATOM     16  CG  TRP A   1      35.059  16.936   3.554  0.00  0.00    -0.002 A 
ATOM     17  CD1 TRP A   1      35.449  18.138   4.091  0.00  0.00    +0.068 A 
ATOM     18  NE1 TRP A   1      36.632  18.551   3.509  0.00  0.00    -0.352 N 
ATOM     19  HE1 TRP A   1      37.140  19.430   3.732  0.00  0.00    +0.166 HD
ATOM     20  CE2 TRP A   1      37.027  17.616   2.591  0.00  0.00    +0.056 A 
ATOM     21  CZ2 TRP A   1      38.159  17.582   1.776  0.00  0.00    +0.017 A 
ATOM     22  CH2 TRP A   1      38.305  16.498   0.932  0.00  0.00    +0.001 A 
ATOM     23  CZ3 TRP A   1      37.339  15.461   0.902  0.00  0.00    +0.000 A 
ATOM     24  CE3 TRP A   1      36.218  15.498   1.715  0.00  0.00    +0.001 A 
ATOM     25  CD2 TRP A   1      36.062  16.576   2.599  0.00  0.00    +0.013 A 
ENDBRANCH  15  16
ENDBRANCH   1  15
TORSDOF 8
REMARK  Name = ../refined-set-2016/3ipq/3ipq_pocket.pdb
REMARK  294 active torsions:
REMARK  status: ('A' for Active; 'I' for Inactive)
REMARK    1  A    between atoms: _1  and  _3
REMARK    2  A    between atoms: _3  and  _4
REMARK    3  A    between atoms: _3  and  _6
REMARK    4  A    between atoms: _6  and  _7
REMARK    5  A    between atoms: _7  and  _8
REMARK    6  A    between atoms: _13  and  _15
REMARK    7  A    between atoms: _15  and  _16
REMARK    8  A    between atoms: _15  and  _18
REMARK    9  A    between atoms: _18  and  _19
REMARK   10  A    between atoms: _19  and  _20
REMARK   11  A    between atoms: _20  and  _21
REMARK   12  A    between atoms: _30  and  _32
REMARK   13  A    between atoms: _32  and  _33
REMARK   14  A    between atoms: _32  and  _35
REMARK   15  A    between atoms: _35  and  _36
REMARK   16  A    between atoms: _42  and  _44
REMARK   17  A    between atoms: _44  and  _45
REMARK   18  A    between atoms: _48  and  _50
REMARK   19  A    between atoms: _50  and  _51
REMARK   20  A    between atoms: _50  and  _53
REMARK   21  A    between atoms: _53  and  _54
REMARK   22  A    between atoms: _59  and  _61
REMARK   23  A    between atoms: _61  and  _62
REMARK   24  A    between atoms: _61  and  _64
REMARK   25  A    between atoms: _64  and  _65
REMARK   26  A    between atoms: _71  and  _73
REMARK   27  A    between atoms: _73  and  _74
REMARK   28  A    between atoms: _73  and  _76
REMARK   29  A    between atoms: _76  and  _77
REMARK   30  A    between atoms: _80  and  _82
REMARK   31  A    between atoms: _82  and  _83
REMARK   32  A    between atoms: _82  and  _85
REMARK   33  A    between atoms: _85  and  _86
REMARK   34  A    between atoms: _86  and  _87
REMARK   35  A    between atoms: _90  and  _92
REMARK   36  A    between atoms: _92  and  _93
REMARK   37  A    between atoms: _92  and  _95
REMARK   38  A    between atoms: _95  and  _96
REMARK   39  A    between atoms: _99  and  _101
REMARK   40  A    between atoms: _101  and  _102
REMARK   41  A    between atoms: _105  and  _107
REMARK   42  A    between atoms: _107  and  _108
REMARK   43  A    between atoms: _107  and  _110
REMARK   44  A    between atoms: _110  and  _111
REMARK   45  A    between atoms: _114  and  _116
REMARK   46  A    between atoms: _116  and  _117
REMARK   47  A    between atoms: _116  and  _119
REMARK   48  A    between atoms: _122  and  _124
REMARK   49  A    between atoms: _124  and  _125
REMARK   50  A    between atoms: _124  and  _127
REMARK   51  A    between atoms: _127  and  _128
REMARK   52  A    between atoms: _130  and  _132
REMARK   53  A    between atoms: _132  and  _133
REMARK   54  A    between atoms: _132  and  _135
REMARK   55  A    between atoms: _138  and  _140
REMARK   56  A    between atoms: _140  and  _141
REMARK   57  A    between atoms: _140  and  _143
REMARK   58  A    between atoms: _143  and  _144
REMARK   59  A    between atoms: _144  and  _145
REMARK   60  A    between atoms: _150  and  _152
REMARK   61  A    between atoms: _152  and  _153
REMARK   62  A    between atoms: _152  and  _155
REMARK   63  A    between atoms: _155  and  _156
REMARK   64  A    between atoms: _156  and  _157
REMARK   65  A    between atoms: _160  and  _162
REMARK   66  A    between atoms: _162  and  _163
REMARK   67  A    between atoms: _162  and  _165
REMARK   68  A    between atoms: _165  and  _166
REMARK   69  A    between atoms: _169  and  _171
REMARK   70  A    between atoms: _171  and  _172
REMARK   71  A    between atoms: _175  and  _177
REMARK   72  A    between atoms: _177  and  _178
REMARK   73  A    between atoms: _177  and  _180
REMARK   74  A    between atoms: _180  and  _181
REMARK   75  A    between atoms: _184  and  _186
REMARK   76  A    between atoms: _186  and  _187
REMARK   77  A    between atoms: _186  and  _189
REMARK   78  A    between atoms: _189  and  _190
REMARK   79  A    between atoms: _190  and  _191
REMARK   80  A    between atoms: _194  and  _196
REMARK   81  A    between atoms: _196  and  _197
REMARK   82  A    between atoms: _196  and  _199
REMARK   83  A    between atoms: _202  and  _204
REMARK   84  A    between atoms: _204  and  _205
REMARK   85  A    between atoms: _204  and  _207
REMARK   86  A    between atoms: _207  and  _208
REMARK   87  A    between atoms: _208  and  _209
REMARK   88  A    between atoms: _211  and  _213
REMARK   89  A    between atoms: _213  and  _214
REMARK   90  A    between atoms: _213  and  _216
REMARK   91  A    between atoms: _216  and  _217
REMARK   92  A    between atoms: _220  and  _222
REMARK   93  A    between atoms: _222  and  _223
REMARK   94  A    between atoms: _222  and  _225
REMARK   95  A    between atoms: _225  and  _226
REMARK   96  A    between atoms: _229  and  _231
REMARK   97  A    between atoms: _231  and  _232
REMARK   98  A    between atoms: _231  and  _234
REMARK   99  A    between atoms: _234  and  _235
REMARK  100  A    between atoms: _235  and  _236
REMARK  101  A    between atoms: _239  and  _241
REMARK  102  A    between atoms: _241  and  _242
REMARK  103  A    between atoms: _241  and  _244
REMARK  104  A    between atoms: _244  and  _245
REMARK  105  A    between atoms: _248  and  _250
REMARK  106  A    between atoms: _250  and  _251
REMARK  107  A    between atoms: _250  and  _253
REMARK  108  A    between atoms: _253  and  _254
REMARK  109  A    between atoms: _256  and  _258
REMARK  110  A    between atoms: _258  and  _259
REMARK  111  A    between atoms: _258  and  _261
REMARK  112  A    between atoms: _261  and  _262
REMARK  113  A    between atoms: _262  and  _263
REMARK  114  A    between atoms: _263  and  _264
REMARK  115  A    between atoms: _273  and  _275
REMARK  116  A    between atoms: _275  and  _276
REMARK  117  A    between atoms: _275  and  _278
REMARK  118  A    between atoms: _278  and  _279
REMARK  119  A    between atoms: _279  and  _280
REMARK  120  A    between atoms: _280  and  _281
REMARK  121  A    between atoms: _290  and  _292
REMARK  122  A    between atoms: _292  and  _293
REMARK  123  A    between atoms: _292  and  _295
REMARK  124  A    between atoms: _295  and  _296
REMARK  125  A    between atoms: _299  and  _301
REMARK  126  A    between atoms: _301  and  _302
REMARK  127  A    between atoms: _301  and  _304
REMARK  128  A    between atoms: _304  and  _305
REMARK  129  A    between atoms: _308  and  _310
REMARK  130  A    between atoms: _310  and  _311
REMARK  131  A    between atoms: _310  and  _313
REMARK  132  A    between atoms: _313  and  _314
REMARK  133  A    between atoms: _320  and  _322
REMARK  134  A    between atoms: _322  and  _323
REMARK  135  A    between atoms: _322  and  _325
REMARK  136  A    between atoms: _325  and  _326
REMARK  137  A    between atoms: _329  and  _331
REMARK  138  A    between atoms: _331  and  _332
REMARK  139  A    between atoms: _331  and  _334
REMARK  140  A    between atoms: _334  and  _335
REMARK  141  A    between atoms: _335  and  _336
REMARK  142  A    between atoms: _336  and  _337
REMARK  143  A    between atoms: _337  and  _338
REMARK  144  A    between atoms: _342  and  _344
REMARK  145  A    between atoms: _344  and  _345
REMARK  146  A    between atoms: _344  and  _347
REMARK  147  A    between atoms: _347  and  _348
REMARK  148  A    between atoms: _351  and  _353
REMARK  149  A    between atoms: _353  and  _354
REMARK  150  A    between atoms: _353  and  _356
REMARK  151  A    between atoms: _356  and  _357
REMARK  152  A    between atoms: _363  and  _365
REMARK  153  A    between atoms: _365  and  _366
REMARK  154  A    between atoms: _365  and  _368
REMARK  155  A    between atoms: _368  and  _369
REMARK  156  A    between atoms: _374  and  _375
REMARK  157  A    between atoms: _377  and  _379
REMARK  158  A    between atoms: _379  and  _380
REMARK  159  A    between atoms: _379  and  _382
REMARK  160  A    between atoms: _382  and  _383
REMARK  161  A    between atoms: _388  and  _390
REMARK  162  A    between atoms: _390  and  _391
REMARK  163  A    between atoms: _390  and  _393
REMARK  164  A    between atoms: _393  and  _394
REMARK  165  A    between atoms: _394  and  _395
REMARK  166  A    between atoms: _395  and  _396
REMARK  167  A    between atoms: _405  and  _407
REMARK  168  A    between atoms: _407  and  _408
REMARK  169  A    between atoms: _407  and  _410
REMARK  170  A    between atoms: _410  and  _411
REMARK  171  A    between atoms: _414  and  _416
REMARK  172  A    between atoms: _416  and  _417
REMARK  173  A    between atoms: _416  and  _419
REMARK  174  A    between atoms: _419  and  _420
REMARK  175  A    between atoms: _426  and  _428
REMARK  176  A    between atoms: _428  and  _429
REMARK  177  A    between atoms: _432  and  _434
REMARK  178  A    between atoms: _434  and  _435
REMARK  179  A    between atoms: _438  and  _440
REMARK  180  A    between atoms: _440  and  _441
REMARK  181  A    between atoms: _443  and  _445
REMARK  182  A    between atoms: _445  and  _446
REMARK  183  A    between atoms: _445  and  _448
REMARK  184  A    between atoms: _448  and  _449
REMARK  185  A    between atoms: _452  and  _454
REMARK  186  A    between atoms: _454  and  _455
REMARK  187  A    between atoms: _454  and  _457
REMARK  188  A    between atoms: _457  and  _458
REMARK  189  A    between atoms: _458  and  _459
REMARK  190  A    between atoms: _464  and  _466
REMARK  191  A    between atoms: _466  and  _467
REMARK  192  A    between atoms: _466  and  _469
REMARK  193  A    between atoms: _472  and  _474
REMARK  194  A    between atoms: _474  and  _475
REMARK  195  A    between atoms: _474  and  _477
REMARK  196  A    between atoms: _477  and  _478
REMARK  197  A    between atoms: _478  and  _479
REMARK  198  A    between atoms: _482  and  _484
REMARK  199  A    between atoms: _484  and  _485
REMARK  200  A    between atoms: _484  and  _487
REMARK  201  A    between atoms: _487  and  _488
REMARK  202  A    between atoms: _494  and  _496
REMARK  203  A    between atoms: _496  and  _497
REMARK  204  A    between atoms: _496  and  _499
REMARK  205  A    between atoms: _499  and  _500
REMARK  206  A    between atoms: _503  and  _505
REMARK  207  A    between atoms: _505  and  _506
REMARK  208  A    between atoms: _505  and  _508
REMARK  209  A    between atoms: _508  and  _509
REMARK  210  A    between atoms: _515  and  _516
REMARK  211  A    between atoms: _521  and  _523
REMARK  212  A    between atoms: _523  and  _524
REMARK  213  A    between atoms: _523  and  _526
REMARK  214  A    between atoms: _526  and  _527
REMARK  215  A    between atoms: _530  and  _532
REMARK  216  A    between atoms: _532  and  _533
REMARK  217  A    between atoms: _532  and  _535
REMARK  218  A    between atoms: _535  and  _536
REMARK  219  A    between atoms: _542  and  _544
REMARK  220  A    between atoms: _544  and  _545
REMARK  221  A    between atoms: _544  and  _547
REMARK  222  A    between atoms: _547  and  _548
REMARK  223  A    between atoms: _548  and  _549
REMARK  224  A    between atoms: _552  and  _554
REMARK  225  A    between atoms: _554  and  _555
REMARK  226  A    between atoms: _554  and  _557
REMARK  227  A    between atoms: _557  and  _558
REMARK  228  A    between atoms: _560  and  _562
REMARK  229  A    between atoms: _562  and  _563
REMARK  230  A    between atoms: _562  and  _565
REMARK  231  A    between atoms: _565  and  _566
REMARK  232  A    between atoms: _569  and  _571
REMARK  233  A    between atoms: _571  and  _572
REMARK  234  A    between atoms: _571  and  _574
REMARK  235  A    between atoms: _577  and  _579
REMARK  236  A    between atoms: _579  and  _580
REMARK  237  A    between atoms: _579  and  _582
REMARK  238  A    between atoms: _582  and  _583
REMARK  239  A    between atoms: _588  and  _590
REMARK  240  A    between atoms: _590  and  _591
REMARK  241  A    between atoms: _590  and  _593
REMARK  242  A    between atoms: _593  and  _594
REMARK  243  A    between atoms: _596  and  _598
REMARK  244  A    between atoms: _598  and  _599
REMARK  245  A    between atoms: _598  and  _601
REMARK  246  A    between atoms: _601  and  _602
REMARK  247  A    between atoms: _602  and  _603
REMARK  248  A    between atoms: _606  and  _608
REMARK  249  A    between atoms: _608  and  _609
REMARK  250  A    between atoms: _608  and  _611
REMARK  251  A    between atoms: _611  and  _612
REMARK  252  A    between atoms: _612  and  _613
REMARK  253  A    between atoms: _618  and  _620
REMARK  254  A    between atoms: _620  and  _621
REMARK  255  A    between atoms: _620  and  _623
REMARK  256  A    between atoms: _626  and  _628
REMARK  257  A    between atoms: _628  and  _629
REMARK  258  A    between atoms: _628  and  _631
REMARK  259  A    between atoms: _631  and  _632
REMARK  260  A    between atoms: _638  and  _640
REMARK  261  A    between atoms: _640  and  _641
REMARK  262  A    between atoms: _640  and  _643
REMARK  263  A    between atoms: _643  and  _644
REMARK  264  A    between atoms: _647  and  _649
REMARK  265  A    between atoms: _649  and  _650
REMARK  266  A    between atoms: _649  and  _652
REMARK  267  A    between atoms: _652  and  _653
REMARK  268  A    between atoms: _653  and  _654
REMARK  269  A    between atoms: _654  and  _655
REMARK  270  A    between atoms: _655  and  _656
REMARK  271  A    between atoms: _660  and  _662
REMARK  272  A    between atoms: _662  and  _663
REMARK  273  A    between atoms: _662  and  _665
REMARK  274  A    between atoms: _665  and  _666
REMARK  275  A    between atoms: _666  and  _667
REMARK  276  A    between atoms: _667  and  _668
REMARK  277  A    between atoms: _668  and  _669
REMARK  278  A    between atoms: _673  and  _675
REMARK  279  A    between atoms: _675  and  _676
REMARK  280  A    between atoms: _675  and  _678
REMARK  281  A    between atoms: _678  and  _679
REMARK  282  A    between atoms: _683  and  _684
REMARK  283  A    between atoms: _689  and  _691
REMARK  284  A    between atoms: _691  and  _692
REMARK  285  A    between atoms: _691  and  _694
REMARK  286  A    between atoms: _694  and  _695
REMARK  287  A    between atoms: _698  and  _700
REMARK  288  A    between atoms: _700  and  _701
REMARK  289  A    between atoms: _700  and  _703
REMARK  290  A    between atoms: _703  and  _704
REMARK  291  A    between atoms: _714  and  _716
REMARK  292  A    between atoms: _716  and  _717
REMARK  293  A    between atoms: _716  and  _719
REMARK  294  A    between atoms: _719  and  _720
REMARK                            x       y       z     vdW  Elec       q    Type
REMARK                         _______ _______ _______ _____ _____    ______ ____
ROOT
ATOM      1  O   HOH     1      49.419  21.584   1.598  0.00  0.00    +0.000 OA
ENDROOT
TORSDOF 0
REMARK  Name = ../refined-set-2016/3ipq/3ipq_pocket.pdb
REMARK  294 active torsions:
REMARK  status: ('A' for Active; 'I' for Inactive)
REMARK    1  A    between atoms: _1  and  _3
REMARK    2  A    between atoms: _3  and  _4
REMARK    3  A    between atoms: _3  and  _6
REMARK    4  A    between atoms: _6  and  _7
REMARK    5  A    between atoms: _7  and  _8
REMARK    6  A    between atoms: _13  and  _15
REMARK    7  A    between atoms: _15  and  _16
REMARK    8  A    between atoms: _15  and  _18
REMARK    9  A    between atoms: _18  and  _19
REMARK   10  A    between atoms: _19  and  _20
REMARK   11  A    between atoms: _20  and  _21
REMARK   12  A    between atoms: _30  and  _32
REMARK   13  A    between atoms: _32  and  _33
REMARK   14  A    between atoms: _32  and  _35
REMARK   15  A    between atoms: _35  and  _36
REMARK   16  A    between atoms: _42  and  _44
REMARK   17  A    between atoms: _44  and  _45
REMARK   18  A    between atoms: _48  and  _50
REMARK   19  A    between atoms: _50  and  _51
REMARK   20  A    between atoms: _50  and  _53
REMARK   21  A    between atoms: _53  and  _54
REMARK   22  A    between atoms: _59  and  _61
REMARK   23  A    between atoms: _61  and  _62
REMARK   24  A    between atoms: _61  and  _64
REMARK   25  A    between atoms: _64  and  _65
REMARK   26  A    between atoms: _71  and  _73
REMARK   27  A    between atoms: _73  and  _74
REMARK   28  A    between atoms: _73  and  _76
REMARK   29  A    between atoms: _76  and  _77
REMARK   30  A    between atoms: _80  and  _82
REMARK   31  A    between atoms: _82  and  _83
REMARK   32  A    between atoms: _82  and  _85
REMARK   33  A    between atoms: _85  and  _86
REMARK   34  A    between atoms: _86  and  _87
REMARK   35  A    between atoms: _90  and  _92
REMARK   36  A    between atoms: _92  and  _93
REMARK   37  A    between atoms: _92  and  _95
REMARK   38  A    between atoms: _95  and  _96
REMARK   39  A    between atoms: _99  and  _101
REMARK   40  A    between atoms: _101  and  _102
REMARK   41  A    between atoms: _105  and  _107
REMARK   42  A    between atoms: _107  and  _108
REMARK   43  A    between atoms: _107  and  _110
REMARK   44  A    between atoms: _110  and  _111
REMARK   45  A    between atoms: _114  and  _116
REMARK   46  A    between atoms: _116  and  _117
REMARK   47  A    between atoms: _116  and  _119
REMARK   48  A    between atoms: _122  and  _124
REMARK   49  A    between atoms: _124  and  _125
REMARK   50  A    between atoms: _124  and  _127
REMARK   51  A    between atoms: _127  and  _128
REMARK   52  A    between atoms: _130  and  _132
REMARK   53  A    between atoms: _132  and  _133
REMARK   54  A    between atoms: _132  and  _135
REMARK   55  A    between atoms: _138  and  _140
REMARK   56  A    between atoms: _140  and  _141
REMARK   57  A    between atoms: _140  and  _143
REMARK   58  A    between atoms: _143  and  _144
REMARK   59  A    between atoms: _144  and  _145
REMARK   60  A    between atoms: _150  and  _152
REMARK   61  A    between atoms: _152  and  _153
REMARK   62  A    between atoms: _152  and  _155
REMARK   63  A    between atoms: _155  and  _156
REMARK   64  A    between atoms: _156  and  _157
REMARK   65  A    between atoms: _160  and  _162
REMARK   66  A    between atoms: _162  and  _163
REMARK   67  A    between atoms: _162  and  _165
REMARK   68  A    between atoms: _165  and  _166
REMARK   69  A    between atoms: _169  and  _171
REMARK   70  A    between atoms: _171  and  _172
REMARK   71  A    between atoms: _175  and  _177
REMARK   72  A    between atoms: _177  and  _178
REMARK   73  A    between atoms: _177  and  _180
REMARK   74  A    between atoms: _180  and  _181
REMARK   75  A    between atoms: _184  and  _186
REMARK   76  A    between atoms: _186  and  _187
REMARK   77  A    between atoms: _186  and  _189
REMARK   78  A    between atoms: _189  and  _190
REMARK   79  A    between atoms: _190  and  _191
REMARK   80  A    between atoms: _194  and  _196
REMARK   81  A    between atoms: _196  and  _197
REMARK   82  A    between atoms: _196  and  _199
REMARK   83  A    between atoms: _202  and  _204
REMARK   84  A    between atoms: _204  and  _205
REMARK   85  A    between atoms: _204  and  _207
REMARK   86  A    between atoms: _207  and  _208
REMARK   87  A    between atoms: _208  and  _209
REMARK   88  A    between atoms: _211  and  _213
REMARK   89  A    between atoms: _213  and  _214
REMARK   90  A    between atoms: _213  and  _216
REMARK   91  A    between atoms: _216  and  _217
REMARK   92  A    between atoms: _220  and  _222
REMARK   93  A    between atoms: _222  and  _223
REMARK   94  A    between atoms: _222  and  _225
REMARK   95  A    between atoms: _225  and  _226
REMARK   96  A    between atoms: _229  and  _231
REMARK   97  A    between atoms: _231  and  _232
REMARK   98  A    between atoms: _231  and  _234
REMARK   99  A    between atoms: _234  and  _235
REMARK  100  A    between atoms: _235  and  _236
REMARK  101  A    between atoms: _239  and  _241
REMARK  102  A    between atoms: _241  and  _242
REMARK  103  A    between atoms: _241  and  _244
REMARK  104  A    between atoms: _244  and  _245
REMARK  105  A    between atoms: _248  and  _250
REMARK  106  A    between atoms: _250  and  _251
REMARK  107  A    between atoms: _250  and  _253
REMARK  108  A    between atoms: _253  and  _254
REMARK  109  A    between atoms: _256  and  _258
REMARK  110  A    between atoms: _258  and  _259
REMARK  111  A    between atoms: _258  and  _261
REMARK  112  A    between atoms: _261  and  _262
REMARK  113  A    between atoms: _262  and  _263
REMARK  114  A    between atoms: _263  and  _264
REMARK  115  A    between atoms: _273  and  _275
REMARK  116  A    between atoms: _275  and  _276
REMARK  117  A    between atoms: _275  and  _278
REMARK  118  A    between atoms: _278  and  _279
REMARK  119  A    between atoms: _279  and  _280
REMARK  120  A    between atoms: _280  and  _281
REMARK  121  A    between atoms: _290  and  _292
REMARK  122  A    between atoms: _292  and  _293
REMARK  123  A    between atoms: _292  and  _295
REMARK  124  A    between atoms: _295  and  _296
REMARK  125  A    between atoms: _299  and  _301
REMARK  126  A    between atoms: _301  and  _302
REMARK  127  A    between atoms: _301  and  _304
REMARK  128  A    between atoms: _304  and  _305
REMARK  129  A    between atoms: _308  and  _310
REMARK  130  A    between atoms: _310  and  _311
REMARK  131  A    between atoms: _310  and  _313
REMARK  132  A    between atoms: _313  and  _314
REMARK  133  A    between atoms: _320  and  _322
REMARK  134  A    between atoms: _322  and  _323
REMARK  135  A    between atoms: _322  and  _325
REMARK  136  A    between atoms: _325  and  _326
REMARK  137  A    between atoms: _329  and  _331
REMARK  138  A    between atoms: _331  and  _332
REMARK  139  A    between atoms: _331  and  _334
REMARK  140  A    between atoms: _334  and  _335
REMARK  141  A    between atoms: _335  and  _336
REMARK  142  A    between atoms: _336  and  _337
REMARK  143  A    between atoms: _337  and  _338
REMARK  144  A    between atoms: _342  and  _344
REMARK  145  A    between atoms: _344  and  _345
REMARK  146  A    between atoms: _344  and  _347
REMARK  147  A    between atoms: _347  and  _348
REMARK  148  A    between atoms: _351  and  _353
REMARK  149  A    between atoms: _353  and  _354
REMARK  150  A    between atoms: _353  and  _356
REMARK  151  A    between atoms: _356  and  _357
REMARK  152  A    between atoms: _363  and  _365
REMARK  153  A    between atoms: _365  and  _366
REMARK  154  A    between atoms: _365  and  _368
REMARK  155  A    between atoms: _368  and  _369
REMARK  156  A    between atoms: _374  and  _375
REMARK  157  A    between atoms: _377  and  _379
REMARK  158  A    between atoms: _379  and  _380
REMARK  159  A    between atoms: _379  and  _382
REMARK  160  A    between atoms: _382  and  _383
REMARK  161  A    between atoms: _388  and  _390
REMARK  162  A    between atoms: _390  and  _391
REMARK  163  A    between atoms: _390  and  _393
REMARK  164  A    between atoms: _393  and  _394
REMARK  165  A    between atoms: _394  and  _395
REMARK  166  A    between atoms: _395  and  _396
REMARK  167  A    between atoms: _405  and  _407
REMARK  168  A    between atoms: _407  and  _408
REMARK  169  A    between atoms: _407  and  _410
REMARK  170  A    between atoms: _410  and  _411
REMARK  171  A    between atoms: _414  and  _416
REMARK  172  A    between atoms: _416  and  _417
REMARK  173  A    between atoms: _416  and  _419
REMARK  174  A    between atoms: _419  and  _420
REMARK  175  A    between atoms: _426  and  _428
REMARK  176  A    between atoms: _428  and  _429
REMARK  177  A    between atoms: _432  and  _434
REMARK  178  A    between atoms: _434  and  _435
REMARK  179  A    between atoms: _438  and  _440
REMARK  180  A    between atoms: _440  and  _441
REMARK  181  A    between atoms: _443  and  _445
REMARK  182  A    between atoms: _445  and  _446
REMARK  183  A    between atoms: _445  and  _448
REMARK  184  A    between atoms: _448  and  _449
REMARK  185  A    between atoms: _452  and  _454
REMARK  186  A    between atoms: _454  and  _455
REMARK  187  A    between atoms: _454  and  _457
REMARK  188  A    between atoms: _457  and  _458
REMARK  189  A    between atoms: _458  and  _459
REMARK  190  A    between atoms: _464  and  _466
REMARK  191  A    between atoms: _466  and  _467
REMARK  192  A    between atoms: _466  and  _469
REMARK  193  A    between atoms: _472  and  _474
REMARK  194  A    between atoms: _474  and  _475
REMARK  195  A    between atoms: _474  and  _477
REMARK  196  A    between atoms: _477  and  _478
REMARK  197  A    between atoms: _478  and  _479
REMARK  198  A    between atoms: _482  and  _484
REMARK  199  A    between atoms: _484  and  _485
REMARK  200  A    between atoms: _484  and  _487
REMARK  201  A    between atoms: _487  and  _488
REMARK  202  A    between atoms: _494  and  _496
REMARK  203  A    between atoms: _496  and  _497
REMARK  204  A    between atoms: _496  and  _499
REMARK  205  A    between atoms: _499  and  _500
REMARK  206  A    between atoms: _503  and  _505
REMARK  207  A    between atoms: _505  and  _506
REMARK  208  A    between atoms: _505  and  _508
REMARK  209  A    between atoms: _508  and  _509
REMARK  210  A    between atoms: _515  and  _516
REMARK  211  A    between atoms: _521  and  _523
REMARK  212  A    between atoms: _523  and  _524
REMARK  213  A    between atoms: _523  and  _526
REMARK  214  A    between atoms: _526  and  _527
REMARK  215  A    between atoms: _530  and  _532
REMARK  216  A    between atoms: _532  and  _533
REMARK  217  A    between atoms: _532  and  _535
REMARK  218  A    between atoms: _535  and  _536
REMARK  219  A    between atoms: _542  and  _544
REMARK  220  A    between atoms: _544  and  _545
REMARK  221  A    between atoms: _544  and  _547
REMARK  222  A    between atoms: _547  and  _548
REMARK  223  A    between atoms: _548  and  _549
REMARK  224  A    between atoms: _552  and  _554
REMARK  225  A    between atoms: _554  and  _555
REMARK  226  A    between atoms: _554  and  _557
REMARK  227  A    between atoms: _557  and  _558
REMARK  228  A    between atoms: _560  and  _562
REMARK  229  A    between atoms: _562  and  _563
REMARK  230  A    between atoms: _562  and  _565
REMARK  231  A    between atoms: _565  and  _566
REMARK  232  A    between atoms: _569  and  _571
REMARK  233  A    between atoms: _571  and  _572
REMARK  234  A    between atoms: _571  and  _574
REMARK  235  A    between atoms: _577  and  _579
REMARK  236  A    between atoms: _579  and  _580
REMARK  237  A    between atoms: _579  and  _582
REMARK  238  A    between atoms: _582  and  _583
REMARK  239  A    between atoms: _588  and  _590
REMARK  240  A    between atoms: _590  and  _591
REMARK  241  A    between atoms: _590  and  _593
REMARK  242  A    between atoms: _593  and  _594
REMARK  243  A    between atoms: _596  and  _598
REMARK  244  A    between atoms: _598  and  _599
REMARK  245  A    between atoms: _598  and  _601
REMARK  246  A    between atoms: _601  and  _602
REMARK  247  A    between atoms: _602  and  _603
REMARK  248  A    between atoms: _606  and  _608
REMARK  249  A    between atoms: _608  and  _609
REMARK  250  A    between atoms: _608  and  _611
REMARK  251  A    between atoms: _611  and  _612
REMARK  252  A    between atoms: _612  and  _613
REMARK  253  A    between atoms: _618  and  _620
REMARK  254  A    between atoms: _620  and  _621
REMARK  255  A    between atoms: _620  and  _623
REMARK  256  A    between atoms: _626  and  _628
REMARK  257  A    between atoms: _628  and  _629
REMARK  258  A    between atoms: _628  and  _631
REMARK  259  A    between atoms: _631  and  _632
REMARK  260  A    between atoms: _638  and  _640
REMARK  261  A    between atoms: _640  and  _641
REMARK  262  A    between atoms: _640  and  _643
REMARK  263  A    between atoms: _643  and  _644
REMARK  264  A    between atoms: _647  and  _649
REMARK  265  A    between atoms: _649  and  _650
REMARK  266  A    between atoms: _649  and  _652
REMARK  267  A    between atoms: _652  and  _653
REMARK  268  A    between atoms: _653  and  _654
REMARK  269  A    between atoms: _654  and  _655
REMARK  270  A    between atoms: _655  and  _656
REMARK  271  A    between atoms: _660  and  _662
REMARK  272  A    between atoms: _662  and  _663
REMARK  273  A    between atoms: _662  and  _665
REMARK  274  A    between atoms: _665  and  _666
REMARK  275  A    between atoms: _666  and  _667
REMARK  276  A    between atoms: _667  and  _668
REMARK  277  A    between atoms: _668  and  _669
REMARK  278  A    between atoms: _673  and  _675
REMARK  279  A    between atoms: _675  and  _676
REMARK  280  A    between atoms: _675  and  _678
REMARK  281  A    between atoms: _678  and  _679
REMARK  282  A    between atoms: _683  and  _684
REMARK  283  A    between atoms: _689  and  _691
REMARK  284  A    between atoms: _691  and  _692
REMARK  285  A    between atoms: _691  and  _694
REMARK  286  A    between atoms: _694  and  _695
REMARK  287  A    between atoms: _698  and  _700
REMARK  288  A    between atoms: _700  and  _701
REMARK  289  A    between atoms: _700  and  _703
REMARK  290  A    between atoms: _703  and  _704
REMARK  291  A    between atoms: _714  and  _716
REMARK  292  A    between atoms: _716  and  _717
REMARK  293  A    between atoms: _716  and  _719
REMARK  294  A    between atoms: _719  and  _720
REMARK                            x       y       z     vdW  Elec       q    Type
REMARK                         _______ _______ _______ _____ _____    ______ ____
ROOT
ATOM      1  O   HOH     1      52.450  21.496   2.484  0.00  0.00    +0.000 OA
ENDROOT
TORSDOF 0
REMARK  Name = ../refined-set-2016/3ipq/3ipq_pocket.pdb
REMARK  294 active torsions:
REMARK  status: ('A' for Active; 'I' for Inactive)
REMARK    1  A    between atoms: _1  and  _3
REMARK    2  A    between atoms: _3  and  _4
REMARK    3  A    between atoms: _3  and  _6
REMARK    4  A    between atoms: _6  and  _7
REMARK    5  A    between atoms: _7  and  _8
REMARK    6  A    between atoms: _13  and  _15
REMARK    7  A    between atoms: _15  and  _16
REMARK    8  A    between atoms: _15  and  _18
REMARK    9  A    between atoms: _18  and  _19
REMARK   10  A    between atoms: _19  and  _20
REMARK   11  A    between atoms: _20  and  _21
REMARK   12  A    between atoms: _30  and  _32
REMARK   13  A    between atoms: _32  and  _33
REMARK   14  A    between atoms: _32  and  _35
REMARK   15  A    between atoms: _35  and  _36
REMARK   16  A    between atoms: _42  and  _44
REMARK   17  A    between atoms: _44  and  _45
REMARK   18  A    between atoms: _48  and  _50
REMARK   19  A    between atoms: _50  and  _51
REMARK   20  A    between atoms: _50  and  _53
REMARK   21  A    between atoms: _53  and  _54
REMARK   22  A    between atoms: _59  and  _61
REMARK   23  A    between atoms: _61  and  _62
REMARK   24  A    between atoms: _61  and  _64
REMARK   25  A    between atoms: _64  and  _65
REMARK   26  A    between atoms: _71  and  _73
REMARK   27  A    between atoms: _73  and  _74
REMARK   28  A    between atoms: _73  and  _76
REMARK   29  A    between atoms: _76  and  _77
REMARK   30  A    between atoms: _80  and  _82
REMARK   31  A    between atoms: _82  and  _83
REMARK   32  A    between atoms: _82  and  _85
REMARK   33  A    between atoms: _85  and  _86
REMARK   34  A    between atoms: _86  and  _87
REMARK   35  A    between atoms: _90  and  _92
REMARK   36  A    between atoms: _92  and  _93
REMARK   37  A    between atoms: _92  and  _95
REMARK   38  A    between atoms: _95  and  _96
REMARK   39  A    between atoms: _99  and  _101
REMARK   40  A    between atoms: _101  and  _102
REMARK   41  A    between atoms: _105  and  _107
REMARK   42  A    between atoms: _107  and  _108
REMARK   43  A    between atoms: _107  and  _110
REMARK   44  A    between atoms: _110  and  _111
REMARK   45  A    between atoms: _114  and  _116
REMARK   46  A    between atoms: _116  and  _117
REMARK   47  A    between atoms: _116  and  _119
REMARK   48  A    between atoms: _122  and  _124
REMARK   49  A    between atoms: _124  and  _125
REMARK   50  A    between atoms: _124  and  _127
REMARK   51  A    between atoms: _127  and  _128
REMARK   52  A    between atoms: _130  and  _132
REMARK   53  A    between atoms: _132  and  _133
REMARK   54  A    between atoms: _132  and  _135
REMARK   55  A    between atoms: _138  and  _140
REMARK   56  A    between atoms: _140  and  _141
REMARK   57  A    between atoms: _140  and  _143
REMARK   58  A    between atoms: _143  and  _144
REMARK   59  A    between atoms: _144  and  _145
REMARK   60  A    between atoms: _150  and  _152
REMARK   61  A    between atoms: _152  and  _153
REMARK   62  A    between atoms: _152  and  _155
REMARK   63  A    between atoms: _155  and  _156
REMARK   64  A    between atoms: _156  and  _157
REMARK   65  A    between atoms: _160  and  _162
REMARK   66  A    between atoms: _162  and  _163
REMARK   67  A    between atoms: _162  and  _165
REMARK   68  A    between atoms: _165  and  _166
REMARK   69  A    between atoms: _169  and  _171
REMARK   70  A    between atoms: _171  and  _172
REMARK   71  A    between atoms: _175  and  _177
REMARK   72  A    between atoms: _177  and  _178
REMARK   73  A    between atoms: _177  and  _180
REMARK   74  A    between atoms: _180  and  _181
REMARK   75  A    between atoms: _184  and  _186
REMARK   76  A    between atoms: _186  and  _187
REMARK   77  A    between atoms: _186  and  _189
REMARK   78  A    between atoms: _189  and  _190
REMARK   79  A    between atoms: _190  and  _191
REMARK   80  A    between atoms: _194  and  _196
REMARK   81  A    between atoms: _196  and  _197
REMARK   82  A    between atoms: _196  and  _199
REMARK   83  A    between atoms: _202  and  _204
REMARK   84  A    between atoms: _204  and  _205
REMARK   85  A    between atoms: _204  and  _207
REMARK   86  A    between atoms: _207  and  _208
REMARK   87  A    between atoms: _208  and  _209
REMARK   88  A    between atoms: _211  and  _213
REMARK   89  A    between atoms: _213  and  _214
REMARK   90  A    between atoms: _213  and  _216
REMARK   91  A    between atoms: _216  and  _217
REMARK   92  A    between atoms: _220  and  _222
REMARK   93  A    between atoms: _222  and  _223
REMARK   94  A    between atoms: _222  and  _225
REMARK   95  A    between atoms: _225  and  _226
REMARK   96  A    between atoms: _229  and  _231
REMARK   97  A    between atoms: _231  and  _232
REMARK   98  A    between atoms: _231  and  _234
REMARK   99  A    between atoms: _234  and  _235
REMARK  100  A    between atoms: _235  and  _236
REMARK  101  A    between atoms: _239  and  _241
REMARK  102  A    between atoms: _241  and  _242
REMARK  103  A    between atoms: _241  and  _244
REMARK  104  A    between atoms: _244  and  _245
REMARK  105  A    between atoms: _248  and  _250
REMARK  106  A    between atoms: _250  and  _251
REMARK  107  A    between atoms: _250  and  _253
REMARK  108  A    between atoms: _253  and  _254
REMARK  109  A    between atoms: _256  and  _258
REMARK  110  A    between atoms: _258  and  _259
REMARK  111  A    between atoms: _258  and  _261
REMARK  112  A    between atoms: _261  and  _262
REMARK  113  A    between atoms: _262  and  _263
REMARK  114  A    between atoms: _263  and  _264
REMARK  115  A    between atoms: _273  and  _275
REMARK  116  A    between atoms: _275  and  _276
REMARK  117  A    between atoms: _275  and  _278
REMARK  118  A    between atoms: _278  and  _279
REMARK  119  A    between atoms: _279  and  _280
REMARK  120  A    between atoms: _280  and  _281
REMARK  121  A    between atoms: _290  and  _292
REMARK  122  A    between atoms: _292  and  _293
REMARK  123  A    between atoms: _292  and  _295
REMARK  124  A    between atoms: _295  and  _296
REMARK  125  A    between atoms: _299  and  _301
REMARK  126  A    between atoms: _301  and  _302
REMARK  127  A    between atoms: _301  and  _304
REMARK  128  A    between atoms: _304  and  _305
REMARK  129  A    between atoms: _308  and  _310
REMARK  130  A    between atoms: _310  and  _311
REMARK  131  A    between atoms: _310  and  _313
REMARK  132  A    between atoms: _313  and  _314
REMARK  133  A    between atoms: _320  and  _322
REMARK  134  A    between atoms: _322  and  _323
REMARK  135  A    between atoms: _322  and  _325
REMARK  136  A    between atoms: _325  and  _326
REMARK  137  A    between atoms: _329  and  _331
REMARK  138  A    between atoms: _331  and  _332
REMARK  139  A    between atoms: _331  and  _334
REMARK  140  A    between atoms: _334  and  _335
REMARK  141  A    between atoms: _335  and  _336
REMARK  142  A    between atoms: _336  and  _337
REMARK  143  A    between atoms: _337  and  _338
REMARK  144  A    between atoms: _342  and  _344
REMARK  145  A    between atoms: _344  and  _345
REMARK  146  A    between atoms: _344  and  _347
REMARK  147  A    between atoms: _347  and  _348
REMARK  148  A    between atoms: _351  and  _353
REMARK  149  A    between atoms: _353  and  _354
REMARK  150  A    between atoms: _353  and  _356
REMARK  151  A    between atoms: _356  and  _357
REMARK  152  A    between atoms: _363  and  _365
REMARK  153  A    between atoms: _365  and  _366
REMARK  154  A    between atoms: _365  and  _368
REMARK  155  A    between atoms: _368  and  _369
REMARK  156  A    between atoms: _374  and  _375
REMARK  157  A    between atoms: _377  and  _379
REMARK  158  A    between atoms: _379  and  _380
REMARK  159  A    between atoms: _379  and  _382
REMARK  160  A    between atoms: _382  and  _383
REMARK  161  A    between atoms: _388  and  _390
REMARK  162  A    between atoms: _390  and  _391
REMARK  163  A    between atoms: _390  and  _393
REMARK  164  A    between atoms: _393  and  _394
REMARK  165  A    between atoms: _394  and  _395
REMARK  166  A    between atoms: _395  and  _396
REMARK  167  A    between atoms: _405  and  _407
REMARK  168  A    between atoms: _407  and  _408
REMARK  169  A    between atoms: _407  and  _410
REMARK  170  A    between atoms: _410  and  _411
REMARK  171  A    between atoms: _414  and  _416
REMARK  172  A    between atoms: _416  and  _417
REMARK  173  A    between atoms: _416  and  _419
REMARK  174  A    between atoms: _419  and  _420
REMARK  175  A    between atoms: _426  and  _428
REMARK  176  A    between atoms: _428  and  _429
REMARK  177  A    between atoms: _432  and  _434
REMARK  178  A    between atoms: _434  and  _435
REMARK  179  A    between atoms: _438  and  _440
REMARK  180  A    between atoms: _440  and  _441
REMARK  181  A    between atoms: _443  and  _445
REMARK  182  A    between atoms: _445  and  _446
REMARK  183  A    between atoms: _445  and  _448
REMARK  184  A    between atoms: _448  and  _449
REMARK  185  A    between atoms: _452  and  _454
REMARK  186  A    between atoms: _454  and  _455
REMARK  187  A    between atoms: _454  and  _457
REMARK  188  A    between atoms: _457  and  _458
REMARK  189  A    between atoms: _458  and  _459
REMARK  190  A    between atoms: _464  and  _466
REMARK  191  A    between atoms: _466  and  _467
REMARK  192  A    between atoms: _466  and  _469
REMARK  193  A    between atoms: _472  and  _474
REMARK  194  A    between atoms: _474  and  _475
REMARK  195  A    between atoms: _474  and  _477
REMARK  196  A    between atoms: _477  and  _478
REMARK  197  A    between atoms: _478  and  _479
REMARK  198  A    between atoms: _482  and  _484
REMARK  199  A    between atoms: _484  and  _485
REMARK  200  A    between atoms: _484  and  _487
REMARK  201  A    between atoms: _487  and  _488
REMARK  202  A    between atoms: _494  and  _496
REMARK  203  A    between atoms: _496  and  _497
REMARK  204  A    between atoms: _496  and  _499
REMARK  205  A    between atoms: _499  and  _500
REMARK  206  A    between atoms: _503  and  _505
REMARK  207  A    between atoms: _505  and  _506
REMARK  208  A    between atoms: _505  and  _508
REMARK  209  A    between atoms: _508  and  _509
REMARK  210  A    between atoms: _515  and  _516
REMARK  211  A    between atoms: _521  and  _523
REMARK  212  A    between atoms: _523  and  _524
REMARK  213  A    between atoms: _523  and  _526
REMARK  214  A    between atoms: _526  and  _527
REMARK  215  A    between atoms: _530  and  _532
REMARK  216  A    between atoms: _532  and  _533
REMARK  217  A    between atoms: _532  and  _535
REMARK  218  A    between atoms: _535  and  _536
REMARK  219  A    between atoms: _542  and  _544
REMARK  220  A    between atoms: _544  and  _545
REMARK  221  A    between atoms: _544  and  _547
REMARK  222  A    between atoms: _547  and  _548
REMARK  223  A    between atoms: _548  and  _549
REMARK  224  A    between atoms: _552  and  _554
REMARK  225  A    between atoms: _554  and  _555
REMARK  226  A    between atoms: _554  and  _557
REMARK  227  A    between atoms: _557  and  _558
REMARK  228  A    between atoms: _560  and  _562
REMARK  229  A    between atoms: _562  and  _563
REMARK  230  A    between atoms: _562  and  _565
REMARK  231  A    between atoms: _565  and  _566
REMARK  232  A    between atoms: _569  and  _571
REMARK  233  A    between atoms: _571  and  _572
REMARK  234  A    between atoms: _571  and  _574
REMARK  235  A    between atoms: _577  and  _579
REMARK  236  A    between atoms: _579  and  _580
REMARK  237  A    between atoms: _579  and  _582
REMARK  238  A    between atoms: _582  and  _583
REMARK  239  A    between atoms: _588  and  _590
REMARK  240  A    between atoms: _590  and  _591
REMARK  241  A    between atoms: _590  and  _593
REMARK  242  A    between atoms: _593  and  _594
REMARK  243  A    between atoms: _596  and  _598
REMARK  244  A    between atoms: _598  and  _599
REMARK  245  A    between atoms: _598  and  _601
REMARK  246  A    between atoms: _601  and  _602
REMARK  247  A    between atoms: _602  and  _603
REMARK  248  A    between atoms: _606  and  _608
REMARK  249  A    between atoms: _608  and  _609
REMARK  250  A    between atoms: _608  and  _611
REMARK  251  A    between atoms: _611  and  _612
REMARK  252  A    between atoms: _612  and  _613
REMARK  253  A    between atoms: _618  and  _620
REMARK  254  A    between atoms: _620  and  _621
REMARK  255  A    between atoms: _620  and  _623
REMARK  256  A    between atoms: _626  and  _628
REMARK  257  A    between atoms: _628  and  _629
REMARK  258  A    between atoms: _628  and  _631
REMARK  259  A    between atoms: _631  and  _632
REMARK  260  A    between atoms: _638  and  _640
REMARK  261  A    between atoms: _640  and  _641
REMARK  262  A    between atoms: _640  and  _643
REMARK  263  A    between atoms: _643  and  _644
REMARK  264  A    between atoms: _647  and  _649
REMARK  265  A    between atoms: _649  and  _650
REMARK  266  A    between atoms: _649  and  _652
REMARK  267  A    between atoms: _652  and  _653
REMARK  268  A    between atoms: _653  and  _654
REMARK  269  A    between atoms: _654  and  _655
REMARK  270  A    between atoms: _655  and  _656
REMARK  271  A    between atoms: _660  and  _662
REMARK  272  A    between atoms: _662  and  _663
REMARK  273  A    between atoms: _662  and  _665
REMARK  274  A    between atoms: _665  and  _666
REMARK  275  A    between atoms: _666  and  _667
REMARK  276  A    between atoms: _667  and  _668
REMARK  277  A    between atoms: _668  and  _669
REMARK  278  A    between atoms: _673  and  _675
REMARK  279  A    between atoms: _675  and  _676
REMARK  280  A    between atoms: _675  and  _678
REMARK  281  A    between atoms: _678  and  _679
REMARK  282  A    between atoms: _683  and  _684
REMARK  283  A    between atoms: _689  and  _691
REMARK  284  A    between atoms: _691  and  _692
REMARK  285  A    between atoms: _691  and  _694
REMARK  286  A    between atoms: _694  and  _695
REMARK  287  A    between atoms: _698  and  _700
REMARK  288  A    between atoms: _700  and  _701
REMARK  289  A    between atoms: _700  and  _703
REMARK  290  A    between atoms: _703  and  _704
REMARK  291  A    between atoms: _714  and  _716
REMARK  292  A    between atoms: _716  and  _717
REMARK  293  A    between atoms: _716  and  _719
REMARK  294  A    between atoms: _719  and  _720
REMARK                            x       y       z     vdW  Elec       q    Type
REMARK                         _______ _______ _______ _____ _____    ______ ____
ROOT
ATOM      1  O   HOH     1      48.281  19.237   0.420  0.00  0.00    +0.000 OA
ENDROOT
TORSDOF 0
REMARK  Name = ../refined-set-2016/3ipq/3ipq_pocket.pdb
REMARK  294 active torsions:
REMARK  status: ('A' for Active; 'I' for Inactive)
REMARK    1  A    between atoms: _1  and  _3
REMARK    2  A    between atoms: _3  and  _4
REMARK    3  A    between atoms: _3  and  _6
REMARK    4  A    between atoms: _6  and  _7
REMARK    5  A    between atoms: _7  and  _8
REMARK    6  A    between atoms: _13  and  _15
REMARK    7  A    between atoms: _15  and  _16
REMARK    8  A    between atoms: _15  and  _18
REMARK    9  A    between atoms: _18  and  _19
REMARK   10  A    between atoms: _19  and  _20
REMARK   11  A    between atoms: _20  and  _21
REMARK   12  A    between atoms: _30  and  _32
REMARK   13  A    between atoms: _32  and  _33
REMARK   14  A    between atoms: _32  and  _35
REMARK   15  A    between atoms: _35  and  _36
REMARK   16  A    between atoms: _42  and  _44
REMARK   17  A    between atoms: _44  and  _45
REMARK   18  A    between atoms: _48  and  _50
REMARK   19  A    between atoms: _50  and  _51
REMARK   20  A    between atoms: _50  and  _53
REMARK   21  A    between atoms: _53  and  _54
REMARK   22  A    between atoms: _59  and  _61
REMARK   23  A    between atoms: _61  and  _62
REMARK   24  A    between atoms: _61  and  _64
REMARK   25  A    between atoms: _64  and  _65
REMARK   26  A    between atoms: _71  and  _73
REMARK   27  A    between atoms: _73  and  _74
REMARK   28  A    between atoms: _73  and  _76
REMARK   29  A    between atoms: _76  and  _77
REMARK   30  A    between atoms: _80  and  _82
REMARK   31  A    between atoms: _82  and  _83
REMARK   32  A    between atoms: _82  and  _85
REMARK   33  A    between atoms: _85  and  _86
REMARK   34  A    between atoms: _86  and  _87
REMARK   35  A    between atoms: _90  and  _92
REMARK   36  A    between atoms: _92  and  _93
REMARK   37  A    between atoms: _92  and  _95
REMARK   38  A    between atoms: _95  and  _96
REMARK   39  A    between atoms: _99  and  _101
REMARK   40  A    between atoms: _101  and  _102
REMARK   41  A    between atoms: _105  and  _107
REMARK   42  A    between atoms: _107  and  _108
REMARK   43  A    between atoms: _107  and  _110
REMARK   44  A    between atoms: _110  and  _111
REMARK   45  A    between atoms: _114  and  _116
REMARK   46  A    between atoms: _116  and  _117
REMARK   47  A    between atoms: _116  and  _119
REMARK   48  A    between atoms: _122  and  _124
REMARK   49  A    between atoms: _124  and  _125
REMARK   50  A    between atoms: _124  and  _127
REMARK   51  A    between atoms: _127  and  _128
REMARK   52  A    between atoms: _130  and  _132
REMARK   53  A    between atoms: _132  and  _133
REMARK   54  A    between atoms: _132  and  _135
REMARK   55  A    between atoms: _138  and  _140
REMARK   56  A    between atoms: _140  and  _141
REMARK   57  A    between atoms: _140  and  _143
REMARK   58  A    between atoms: _143  and  _144
REMARK   59  A    between atoms: _144  and  _145
REMARK   60  A    between atoms: _150  and  _152
REMARK   61  A    between atoms: _152  and  _153
REMARK   62  A    between atoms: _152  and  _155
REMARK   63  A    between atoms: _155  and  _156
REMARK   64  A    between atoms: _156  and  _157
REMARK   65  A    between atoms: _160  and  _162
REMARK   66  A    between atoms: _162  and  _163
REMARK   67  A    between atoms: _162  and  _165
REMARK   68  A    between atoms: _165  and  _166
REMARK   69  A    between atoms: _169  and  _171
REMARK   70  A    between atoms: _171  and  _172
REMARK   71  A    between atoms: _175  and  _177
REMARK   72  A    between atoms: _177  and  _178
REMARK   73  A    between atoms: _177  and  _180
REMARK   74  A    between atoms: _180  and  _181
REMARK   75  A    between atoms: _184  and  _186
REMARK   76  A    between atoms: _186  and  _187
REMARK   77  A    between atoms: _186  and  _189
REMARK   78  A    between atoms: _189  and  _190
REMARK   79  A    between atoms: _190  and  _191
REMARK   80  A    between atoms: _194  and  _196
REMARK   81  A    between atoms: _196  and  _197
REMARK   82  A    between atoms: _196  and  _199
REMARK   83  A    between atoms: _202  and  _204
REMARK   84  A    between atoms: _204  and  _205
REMARK   85  A    between atoms: _204  and  _207
REMARK   86  A    between atoms: _207  and  _208
REMARK   87  A    between atoms: _208  and  _209
REMARK   88  A    between atoms: _211  and  _213
REMARK   89  A    between atoms: _213  and  _214
REMARK   90  A    between atoms: _213  and  _216
REMARK   91  A    between atoms: _216  and  _217
REMARK   92  A    between atoms: _220  and  _222
REMARK   93  A    between atoms: _222  and  _223
REMARK   94  A    between atoms: _222  and  _225
REMARK   95  A    between atoms: _225  and  _226
REMARK   96  A    between atoms: _229  and  _231
REMARK   97  A    between atoms: _231  and  _232
REMARK   98  A    between atoms: _231  and  _234
REMARK   99  A    between atoms: _234  and  _235
REMARK  100  A    between atoms: _235  and  _236
REMARK  101  A    between atoms: _239  and  _241
REMARK  102  A    between atoms: _241  and  _242
REMARK  103  A    between atoms: _241  and  _244
REMARK  104  A    between atoms: _244  and  _245
REMARK  105  A    between atoms: _248  and  _250
REMARK  106  A    between atoms: _250  and  _251
REMARK  107  A    between atoms: _250  and  _253
REMARK  108  A    between atoms: _253  and  _254
REMARK  109  A    between atoms: _256  and  _258
REMARK  110  A    between atoms: _258  and  _259
REMARK  111  A    between atoms: _258  and  _261
REMARK  112  A    between atoms: _261  and  _262
REMARK  113  A    between atoms: _262  and  _263
REMARK  114  A    between atoms: _263  and  _264
REMARK  115  A    between atoms: _273  and  _275
REMARK  116  A    between atoms: _275  and  _276
REMARK  117  A    between atoms: _275  and  _278
REMARK  118  A    between atoms: _278  and  _279
REMARK  119  A    between atoms: _279  and  _280
REMARK  120  A    between atoms: _280  and  _281
REMARK  121  A    between atoms: _290  and  _292
REMARK  122  A    between atoms: _292  and  _293
REMARK  123  A    between atoms: _292  and  _295
REMARK  124  A    between atoms: _295  and  _296
REMARK  125  A    between atoms: _299  and  _301
REMARK  126  A    between atoms: _301  and  _302
REMARK  127  A    between atoms: _301  and  _304
REMARK  128  A    between atoms: _304  and  _305
REMARK  129  A    between atoms: _308  and  _310
REMARK  130  A    between atoms: _310  and  _311
REMARK  131  A    between atoms: _310  and  _313
REMARK  132  A    between atoms: _313  and  _314
REMARK  133  A    between atoms: _320  and  _322
REMARK  134  A    between atoms: _322  and  _323
REMARK  135  A    between atoms: _322  and  _325
REMARK  136  A    between atoms: _325  and  _326
REMARK  137  A    between atoms: _329  and  _331
REMARK  138  A    between atoms: _331  and  _332
REMARK  139  A    between atoms: _331  and  _334
REMARK  140  A    between atoms: _334  and  _335
REMARK  141  A    between atoms: _335  and  _336
REMARK  142  A    between atoms: _336  and  _337
REMARK  143  A    between atoms: _337  and  _338
REMARK  144  A    between atoms: _342  and  _344
REMARK  145  A    between atoms: _344  and  _345
REMARK  146  A    between atoms: _344  and  _347
REMARK  147  A    between atoms: _347  and  _348
REMARK  148  A    between atoms: _351  and  _353
REMARK  149  A    between atoms: _353  and  _354
REMARK  150  A    between atoms: _353  and  _356
REMARK  151  A    between atoms: _356  and  _357
REMARK  152  A    between atoms: _363  and  _365
REMARK  153  A    between atoms: _365  and  _366
REMARK  154  A    between atoms: _365  and  _368
REMARK  155  A    between atoms: _368  and  _369
REMARK  156  A    between atoms: _374  and  _375
REMARK  157  A    between atoms: _377  and  _379
REMARK  158  A    between atoms: _379  and  _380
REMARK  159  A    between atoms: _379  and  _382
REMARK  160  A    between atoms: _382  and  _383
REMARK  161  A    between atoms: _388  and  _390
REMARK  162  A    between atoms: _390  and  _391
REMARK  163  A    between atoms: _390  and  _393
REMARK  164  A    between atoms: _393  and  _394
REMARK  165  A    between atoms: _394  and  _395
REMARK  166  A    between atoms: _395  and  _396
REMARK  167  A    between atoms: _405  and  _407
REMARK  168  A    between atoms: _407  and  _408
REMARK  169  A    between atoms: _407  and  _410
REMARK  170  A    between atoms: _410  and  _411
REMARK  171  A    between atoms: _414  and  _416
REMARK  172  A    between atoms: _416  and  _417
REMARK  173  A    between atoms: _416  and  _419
REMARK  174  A    between atoms: _419  and  _420
REMARK  175  A    between atoms: _426  and  _428
REMARK  176  A    between atoms: _428  and  _429
REMARK  177  A    between atoms: _432  and  _434
REMARK  178  A    between atoms: _434  and  _435
REMARK  179  A    between atoms: _438  and  _440
REMARK  180  A    between atoms: _440  and  _441
REMARK  181  A    between atoms: _443  and  _445
REMARK  182  A    between atoms: _445  and  _446
REMARK  183  A    between atoms: _445  and  _448
REMARK  184  A    between atoms: _448  and  _449
REMARK  185  A    between atoms: _452  and  _454
REMARK  186  A    between atoms: _454  and  _455
REMARK  187  A    between atoms: _454  and  _457
REMARK  188  A    between atoms: _457  and  _458
REMARK  189  A    between atoms: _458  and  _459
REMARK  190  A    between atoms: _464  and  _466
REMARK  191  A    between atoms: _466  and  _467
REMARK  192  A    between atoms: _466  and  _469
REMARK  193  A    between atoms: _472  and  _474
REMARK  194  A    between atoms: _474  and  _475
REMARK  195  A    between atoms: _474  and  _477
REMARK  196  A    between atoms: _477  and  _478
REMARK  197  A    between atoms: _478  and  _479
REMARK  198  A    between atoms: _482  and  _484
REMARK  199  A    between atoms: _484  and  _485
REMARK  200  A    between atoms: _484  and  _487
REMARK  201  A    between atoms: _487  and  _488
REMARK  202  A    between atoms: _494  and  _496
REMARK  203  A    between atoms: _496  and  _497
REMARK  204  A    between atoms: _496  and  _499
REMARK  205  A    between atoms: _499  and  _500
REMARK  206  A    between atoms: _503  and  _505
REMARK  207  A    between atoms: _505  and  _506
REMARK  208  A    between atoms: _505  and  _508
REMARK  209  A    between atoms: _508  and  _509
REMARK  210  A    between atoms: _515  and  _516
REMARK  211  A    between atoms: _521  and  _523
REMARK  212  A    between atoms: _523  and  _524
REMARK  213  A    between atoms: _523  and  _526
REMARK  214  A    between atoms: _526  and  _527
REMARK  215  A    between atoms: _530  and  _532
REMARK  216  A    between atoms: _532  and  _533
REMARK  217  A    between atoms: _532  and  _535
REMARK  218  A    between atoms: _535  and  _536
REMARK  219  A    between atoms: _542  and  _544
REMARK  220  A    between atoms: _544  and  _545
REMARK  221  A    between atoms: _544  and  _547
REMARK  222  A    between atoms: _547  and  _548
REMARK  223  A    between atoms: _548  and  _549
REMARK  224  A    between atoms: _552  and  _554
REMARK  225  A    between atoms: _554  and  _555
REMARK  226  A    between atoms: _554  and  _557
REMARK  227  A    between atoms: _557  and  _558
REMARK  228  A    between atoms: _560  and  _562
REMARK  229  A    between atoms: _562  and  _563
REMARK  230  A    between atoms: _562  and  _565
REMARK  231  A    between atoms: _565  and  _566
REMARK  232  A    between atoms: _569  and  _571
REMARK  233  A    between atoms: _571  and  _572
REMARK  234  A    between atoms: _571  and  _574
REMARK  235  A    between atoms: _577  and  _579
REMARK  236  A    between atoms: _579  and  _580
REMARK  237  A    between atoms: _579  and  _582
REMARK  238  A    between atoms: _582  and  _583
REMARK  239  A    between atoms: _588  and  _590
REMARK  240  A    between atoms: _590  and  _591
REMARK  241  A    between atoms: _590  and  _593
REMARK  242  A    between atoms: _593  and  _594
REMARK  243  A    between atoms: _596  and  _598
REMARK  244  A    between atoms: _598  and  _599
REMARK  245  A    between atoms: _598  and  _601
REMARK  246  A    between atoms: _601  and  _602
REMARK  247  A    between atoms: _602  and  _603
REMARK  248  A    between atoms: _606  and  _608
REMARK  249  A    between atoms: _608  and  _609
REMARK  250  A    between atoms: _608  and  _611
REMARK  251  A    between atoms: _611  and  _612
REMARK  252  A    between atoms: _612  and  _613
REMARK  253  A    between atoms: _618  and  _620
REMARK  254  A    between atoms: _620  and  _621
REMARK  255  A    between atoms: _620  and  _623
REMARK  256  A    between atoms: _626  and  _628
REMARK  257  A    between atoms: _628  and  _629
REMARK  258  A    between atoms: _628  and  _631
REMARK  259  A    between atoms: _631  and  _632
REMARK  260  A    between atoms: _638  and  _640
REMARK  261  A    between atoms: _640  and  _641
REMARK  262  A    between atoms: _640  and  _643
REMARK  263  A    between atoms: _643  and  _644
REMARK  264  A    between atoms: _647  and  _649
REMARK  265  A    between atoms: _649  and  _650
REMARK  266  A    between atoms: _649  and  _652
REMARK  267  A    between atoms: _652  and  _653
REMARK  268  A    between atoms: _653  and  _654
REMARK  269  A    between atoms: _654  and  _655
REMARK  270  A    between atoms: _655  and  _656
REMARK  271  A    between atoms: _660  and  _662
REMARK  272  A    between atoms: _662  and  _663
REMARK  273  A    between atoms: _662  and  _665
REMARK  274  A    between atoms: _665  and  _666
REMARK  275  A    between atoms: _666  and  _667
REMARK  276  A    between atoms: _667  and  _668
REMARK  277  A    between atoms: _668  and  _669
REMARK  278  A    between atoms: _673  and  _675
REMARK  279  A    between atoms: _675  and  _676
REMARK  280  A    between atoms: _675  and  _678
REMARK  281  A    between atoms: _678  and  _679
REMARK  282  A    between atoms: _683  and  _684
REMARK  283  A    between atoms: _689  and  _691
REMARK  284  A    between atoms: _691  and  _692
REMARK  285  A    between atoms: _691  and  _694
REMARK  286  A    between atoms: _694  and  _695
REMARK  287  A    between atoms: _698  and  _700
REMARK  288  A    between atoms: _700  and  _701
REMARK  289  A    between atoms: _700  and  _703
REMARK  290  A    between atoms: _703  and  _704
REMARK  291  A    between atoms: _714  and  _716
REMARK  292  A    between atoms: _716  and  _717
REMARK  293  A    between atoms: _716  and  _719
REMARK  294  A    between atoms: _719  and  _720
REMARK                            x       y       z     vdW  Elec       q    Type
REMARK                         _______ _______ _______ _____ _____    ______ ____
ROOT
ATOM      1  O   HOH     1      29.362  11.910   1.154  0.00  0.00    +0.000 OA
ENDROOT
TORSDOF 0
REMARK  Name = ../refined-set-2016/3ipq/3ipq_pocket.pdb
REMARK  294 active torsions:
REMARK  status: ('A' for Active; 'I' for Inactive)
REMARK    1  A    between atoms: _1  and  _3
REMARK    2  A    between atoms: _3  and  _4
REMARK    3  A    between atoms: _3  and  _6
REMARK    4  A    between atoms: _6  and  _7
REMARK    5  A    between atoms: _7  and  _8
REMARK    6  A    between atoms: _13  and  _15
REMARK    7  A    between atoms: _15  and  _16
REMARK    8  A    between atoms: _15  and  _18
REMARK    9  A    between atoms: _18  and  _19
REMARK   10  A    between atoms: _19  and  _20
REMARK   11  A    between atoms: _20  and  _21
REMARK   12  A    between atoms: _30  and  _32
REMARK   13  A    between atoms: _32  and  _33
REMARK   14  A    between atoms: _32  and  _35
REMARK   15  A    between atoms: _35  and  _36
REMARK   16  A    between atoms: _42  and  _44
REMARK   17  A    between atoms: _44  and  _45
REMARK   18  A    between atoms: _48  and  _50
REMARK   19  A    between atoms: _50  and  _51
REMARK   20  A    between atoms: _50  and  _53
REMARK   21  A    between atoms: _53  and  _54
REMARK   22  A    between atoms: _59  and  _61
REMARK   23  A    between atoms: _61  and  _62
REMARK   24  A    between atoms: _61  and  _64
REMARK   25  A    between atoms: _64  and  _65
REMARK   26  A    between atoms: _71  and  _73
REMARK   27  A    between atoms: _73  and  _74
REMARK   28  A    between atoms: _73  and  _76
REMARK   29  A    between atoms: _76  and  _77
REMARK   30  A    between atoms: _80  and  _82
REMARK   31  A    between atoms: _82  and  _83
REMARK   32  A    between atoms: _82  and  _85
REMARK   33  A    between atoms: _85  and  _86
REMARK   34  A    between atoms: _86  and  _87
REMARK   35  A    between atoms: _90  and  _92
REMARK   36  A    between atoms: _92  and  _93
REMARK   37  A    between atoms: _92  and  _95
REMARK   38  A    between atoms: _95  and  _96
REMARK   39  A    between atoms: _99  and  _101
REMARK   40  A    between atoms: _101  and  _102
REMARK   41  A    between atoms: _105  and  _107
REMARK   42  A    between atoms: _107  and  _108
REMARK   43  A    between atoms: _107  and  _110
REMARK   44  A    between atoms: _110  and  _111
REMARK   45  A    between atoms: _114  and  _116
REMARK   46  A    between atoms: _116  and  _117
REMARK   47  A    between atoms: _116  and  _119
REMARK   48  A    between atoms: _122  and  _124
REMARK   49  A    between atoms: _124  and  _125
REMARK   50  A    between atoms: _124  and  _127
REMARK   51  A    between atoms: _127  and  _128
REMARK   52  A    between atoms: _130  and  _132
REMARK   53  A    between atoms: _132  and  _133
REMARK   54  A    between atoms: _132  and  _135
REMARK   55  A    between atoms: _138  and  _140
REMARK   56  A    between atoms: _140  and  _141
REMARK   57  A    between atoms: _140  and  _143
REMARK   58  A    between atoms: _143  and  _144
REMARK   59  A    between atoms: _144  and  _145
REMARK   60  A    between atoms: _150  and  _152
REMARK   61  A    between atoms: _152  and  _153
REMARK   62  A    between atoms: _152  and  _155
REMARK   63  A    between atoms: _155  and  _156
REMARK   64  A    between atoms: _156  and  _157
REMARK   65  A    between atoms: _160  and  _162
REMARK   66  A    between atoms: _162  and  _163
REMARK   67  A    between atoms: _162  and  _165
REMARK   68  A    between atoms: _165  and  _166
REMARK   69  A    between atoms: _169  and  _171
REMARK   70  A    between atoms: _171  and  _172
REMARK   71  A    between atoms: _175  and  _177
REMARK   72  A    between atoms: _177  and  _178
REMARK   73  A    between atoms: _177  and  _180
REMARK   74  A    between atoms: _180  and  _181
REMARK   75  A    between atoms: _184  and  _186
REMARK   76  A    between atoms: _186  and  _187
REMARK   77  A    between atoms: _186  and  _189
REMARK   78  A    between atoms: _189  and  _190
REMARK   79  A    between atoms: _190  and  _191
REMARK   80  A    between atoms: _194  and  _196
REMARK   81  A    between atoms: _196  and  _197
REMARK   82  A    between atoms: _196  and  _199
REMARK   83  A    between atoms: _202  and  _204
REMARK   84  A    between atoms: _204  and  _205
REMARK   85  A    between atoms: _204  and  _207
REMARK   86  A    between atoms: _207  and  _208
REMARK   87  A    between atoms: _208  and  _209
REMARK   88  A    between atoms: _211  and  _213
REMARK   89  A    between atoms: _213  and  _214
REMARK   90  A    between atoms: _213  and  _216
REMARK   91  A    between atoms: _216  and  _217
REMARK   92  A    between atoms: _220  and  _222
REMARK   93  A    between atoms: _222  and  _223
REMARK   94  A    between atoms: _222  and  _225
REMARK   95  A    between atoms: _225  and  _226
REMARK   96  A    between atoms: _229  and  _231
REMARK   97  A    between atoms: _231  and  _232
REMARK   98  A    between atoms: _231  and  _234
REMARK   99  A    between atoms: _234  and  _235
REMARK  100  A    between atoms: _235  and  _236
REMARK  101  A    between atoms: _239  and  _241
REMARK  102  A    between atoms: _241  and  _242
REMARK  103  A    between atoms: _241  and  _244
REMARK  104  A    between atoms: _244  and  _245
REMARK  105  A    between atoms: _248  and  _250
REMARK  106  A    between atoms: _250  and  _251
REMARK  107  A    between atoms: _250  and  _253
REMARK  108  A    between atoms: _253  and  _254
REMARK  109  A    between atoms: _256  and  _258
REMARK  110  A    between atoms: _258  and  _259
REMARK  111  A    between atoms: _258  and  _261
REMARK  112  A    between atoms: _261  and  _262
REMARK  113  A    between atoms: _262  and  _263
REMARK  114  A    between atoms: _263  and  _264
REMARK  115  A    between atoms: _273  and  _275
REMARK  116  A    between atoms: _275  and  _276
REMARK  117  A    between atoms: _275  and  _278
REMARK  118  A    between atoms: _278  and  _279
REMARK  119  A    between atoms: _279  and  _280
REMARK  120  A    between atoms: _280  and  _281
REMARK  121  A    between atoms: _290  and  _292
REMARK  122  A    between atoms: _292  and  _293
REMARK  123  A    between atoms: _292  and  _295
REMARK  124  A    between atoms: _295  and  _296
REMARK  125  A    between atoms: _299  and  _301
REMARK  126  A    between atoms: _301  and  _302
REMARK  127  A    between atoms: _301  and  _304
REMARK  128  A    between atoms: _304  and  _305
REMARK  129  A    between atoms: _308  and  _310
REMARK  130  A    between atoms: _310  and  _311
REMARK  131  A    between atoms: _310  and  _313
REMARK  132  A    between atoms: _313  and  _314
REMARK  133  A    between atoms: _320  and  _322
REMARK  134  A    between atoms: _322  and  _323
REMARK  135  A    between atoms: _322  and  _325
REMARK  136  A    between atoms: _325  and  _326
REMARK  137  A    between atoms: _329  and  _331
REMARK  138  A    between atoms: _331  and  _332
REMARK  139  A    between atoms: _331  and  _334
REMARK  140  A    between atoms: _334  and  _335
REMARK  141  A    between atoms: _335  and  _336
REMARK  142  A    between atoms: _336  and  _337
REMARK  143  A    between atoms: _337  and  _338
REMARK  144  A    between atoms: _342  and  _344
REMARK  145  A    between atoms: _344  and  _345
REMARK  146  A    between atoms: _344  and  _347
REMARK  147  A    between atoms: _347  and  _348
REMARK  148  A    between atoms: _351  and  _353
REMARK  149  A    between atoms: _353  and  _354
REMARK  150  A    between atoms: _353  and  _356
REMARK  151  A    between atoms: _356  and  _357
REMARK  152  A    between atoms: _363  and  _365
REMARK  153  A    between atoms: _365  and  _366
REMARK  154  A    between atoms: _365  and  _368
REMARK  155  A    between atoms: _368  and  _369
REMARK  156  A    between atoms: _374  and  _375
REMARK  157  A    between atoms: _377  and  _379
REMARK  158  A    between atoms: _379  and  _380
REMARK  159  A    between atoms: _379  and  _382
REMARK  160  A    between atoms: _382  and  _383
REMARK  161  A    between atoms: _388  and  _390
REMARK  162  A    between atoms: _390  and  _391
REMARK  163  A    between atoms: _390  and  _393
REMARK  164  A    between atoms: _393  and  _394
REMARK  165  A    between atoms: _394  and  _395
REMARK  166  A    between atoms: _395  and  _396
REMARK  167  A    between atoms: _405  and  _407
REMARK  168  A    between atoms: _407  and  _408
REMARK  169  A    between atoms: _407  and  _410
REMARK  170  A    between atoms: _410  and  _411
REMARK  171  A    between atoms: _414  and  _416
REMARK  172  A    between atoms: _416  and  _417
REMARK  173  A    between atoms: _416  and  _419
REMARK  174  A    between atoms: _419  and  _420
REMARK  175  A    between atoms: _426  and  _428
REMARK  176  A    between atoms: _428  and  _429
REMARK  177  A    between atoms: _432  and  _434
REMARK  178  A    between atoms: _434  and  _435
REMARK  179  A    between atoms: _438  and  _440
REMARK  180  A    between atoms: _440  and  _441
REMARK  181  A    between atoms: _443  and  _445
REMARK  182  A    between atoms: _445  and  _446
REMARK  183  A    between atoms: _445  and  _448
REMARK  184  A    between atoms: _448  and  _449
REMARK  185  A    between atoms: _452  and  _454
REMARK  186  A    between atoms: _454  and  _455
REMARK  187  A    between atoms: _454  and  _457
REMARK  188  A    between atoms: _457  and  _458
REMARK  189  A    between atoms: _458  and  _459
REMARK  190  A    between atoms: _464  and  _466
REMARK  191  A    between atoms: _466  and  _467
REMARK  192  A    between atoms: _466  and  _469
REMARK  193  A    between atoms: _472  and  _474
REMARK  194  A    between atoms: _474  and  _475
REMARK  195  A    between atoms: _474  and  _477
REMARK  196  A    between atoms: _477  and  _478
REMARK  197  A    between atoms: _478  and  _479
REMARK  198  A    between atoms: _482  and  _484
REMARK  199  A    between atoms: _484  and  _485
REMARK  200  A    between atoms: _484  and  _487
REMARK  201  A    between atoms: _487  and  _488
REMARK  202  A    between atoms: _494  and  _496
REMARK  203  A    between atoms: _496  and  _497
REMARK  204  A    between atoms: _496  and  _499
REMARK  205  A    between atoms: _499  and  _500
REMARK  206  A    between atoms: _503  and  _505
REMARK  207  A    between atoms: _505  and  _506
REMARK  208  A    between atoms: _505  and  _508
REMARK  209  A    between atoms: _508  and  _509
REMARK  210  A    between atoms: _515  and  _516
REMARK  211  A    between atoms: _521  and  _523
REMARK  212  A    between atoms: _523  and  _524
REMARK  213  A    between atoms: _523  and  _526
REMARK  214  A    between atoms: _526  and  _527
REMARK  215  A    between atoms: _530  and  _532
REMARK  216  A    between atoms: _532  and  _533
REMARK  217  A    between atoms: _532  and  _535
REMARK  218  A    between atoms: _535  and  _536
REMARK  219  A    between atoms: _542  and  _544
REMARK  220  A    between atoms: _544  and  _545
REMARK  221  A    between atoms: _544  and  _547
REMARK  222  A    between atoms: _547  and  _548
REMARK  223  A    between atoms: _548  and  _549
REMARK  224  A    between atoms: _552  and  _554
REMARK  225  A    between atoms: _554  and  _555
REMARK  226  A    between atoms: _554  and  _557
REMARK  227  A    between atoms: _557  and  _558
REMARK  228  A    between atoms: _560  and  _562
REMARK  229  A    between atoms: _562  and  _563
REMARK  230  A    between atoms: _562  and  _565
REMARK  231  A    between atoms: _565  and  _566
REMARK  232  A    between atoms: _569  and  _571
REMARK  233  A    between atoms: _571  and  _572
REMARK  234  A    between atoms: _571  and  _574
REMARK  235  A    between atoms: _577  and  _579
REMARK  236  A    between atoms: _579  and  _580
REMARK  237  A    between atoms: _579  and  _582
REMARK  238  A    between atoms: _582  and  _583
REMARK  239  A    between atoms: _588  and  _590
REMARK  240  A    between atoms: _590  and  _591
REMARK  241  A    between atoms: _590  and  _593
REMARK  242  A    between atoms: _593  and  _594
REMARK  243  A    between atoms: _596  and  _598
REMARK  244  A    between atoms: _598  and  _599
REMARK  245  A    between atoms: _598  and  _601
REMARK  246  A    between atoms: _601  and  _602
REMARK  247  A    between atoms: _602  and  _603
REMARK  248  A    between atoms: _606  and  _608
REMARK  249  A    between atoms: _608  and  _609
REMARK  250  A    between atoms: _608  and  _611
REMARK  251  A    between atoms: _611  and  _612
REMARK  252  A    between atoms: _612  and  _613
REMARK  253  A    between atoms: _618  and  _620
REMARK  254  A    between atoms: _620  and  _621
REMARK  255  A    between atoms: _620  and  _623
REMARK  256  A    between atoms: _626  and  _628
REMARK  257  A    between atoms: _628  and  _629
REMARK  258  A    between atoms: _628  and  _631
REMARK  259  A    between atoms: _631  and  _632
REMARK  260  A    between atoms: _638  and  _640
REMARK  261  A    between atoms: _640  and  _641
REMARK  262  A    between atoms: _640  and  _643
REMARK  263  A    between atoms: _643  and  _644
REMARK  264  A    between atoms: _647  and  _649
REMARK  265  A    between atoms: _649  and  _650
REMARK  266  A    between atoms: _649  and  _652
REMARK  267  A    between atoms: _652  and  _653
REMARK  268  A    between atoms: _653  and  _654
REMARK  269  A    between atoms: _654  and  _655
REMARK  270  A    between atoms: _655  and  _656
REMARK  271  A    between atoms: _660  and  _662
REMARK  272  A    between atoms: _662  and  _663
REMARK  273  A    between atoms: _662  and  _665
REMARK  274  A    between atoms: _665  and  _666
REMARK  275  A    between atoms: _666  and  _667
REMARK  276  A    between atoms: _667  and  _668
REMARK  277  A    between atoms: _668  and  _669
REMARK  278  A    between atoms: _673  and  _675
REMARK  279  A    between atoms: _675  and  _676
REMARK  280  A    between atoms: _675  and  _678
REMARK  281  A    between atoms: _678  and  _679
REMARK  282  A    between atoms: _683  and  _684
REMARK  283  A    between atoms: _689  and  _691
REMARK  284  A    between atoms: _691  and  _692
REMARK  285  A    between atoms: _691  and  _694
REMARK  286  A    between atoms: _694  and  _695
REMARK  287  A    between atoms: _698  and  _700
REMARK  288  A    between atoms: _700  and  _701
REMARK  289  A    between atoms: _700  and  _703
REMARK  290  A    between atoms: _703  and  _704
REMARK  291  A    between atoms: _714  and  _716
REMARK  292  A    between atoms: _716  and  _717
REMARK  293  A    between atoms: _716  and  _719
REMARK  294  A    between atoms: _719  and  _720
REMARK                            x       y       z     vdW  Elec       q    Type
REMARK                         _______ _______ _______ _____ _____    ______ ____
ROOT
ATOM      1  O   HOH     1      52.377  21.817  -1.688  0.00  0.00    +0.000 OA
ENDROOT
TORSDOF 0
REMARK  Name = ../refined-set-2016/3ipq/3ipq_pocket.pdb
REMARK  294 active torsions:
REMARK  status: ('A' for Active; 'I' for Inactive)
REMARK    1  A    between atoms: _1  and  _3
REMARK    2  A    between atoms: _3  and  _4
REMARK    3  A    between atoms: _3  and  _6
REMARK    4  A    between atoms: _6  and  _7
REMARK    5  A    between atoms: _7  and  _8
REMARK    6  A    between atoms: _13  and  _15
REMARK    7  A    between atoms: _15  and  _16
REMARK    8  A    between atoms: _15  and  _18
REMARK    9  A    between atoms: _18  and  _19
REMARK   10  A    between atoms: _19  and  _20
REMARK   11  A    between atoms: _20  and  _21
REMARK   12  A    between atoms: _30  and  _32
REMARK   13  A    between atoms: _32  and  _33
REMARK   14  A    between atoms: _32  and  _35
REMARK   15  A    between atoms: _35  and  _36
REMARK   16  A    between atoms: _42  and  _44
REMARK   17  A    between atoms: _44  and  _45
REMARK   18  A    between atoms: _48  and  _50
REMARK   19  A    between atoms: _50  and  _51
REMARK   20  A    between atoms: _50  and  _53
REMARK   21  A    between atoms: _53  and  _54
REMARK   22  A    between atoms: _59  and  _61
REMARK   23  A    between atoms: _61  and  _62
REMARK   24  A    between atoms: _61  and  _64
REMARK   25  A    between atoms: _64  and  _65
REMARK   26  A    between atoms: _71  and  _73
REMARK   27  A    between atoms: _73  and  _74
REMARK   28  A    between atoms: _73  and  _76
REMARK   29  A    between atoms: _76  and  _77
REMARK   30  A    between atoms: _80  and  _82
REMARK   31  A    between atoms: _82  and  _83
REMARK   32  A    between atoms: _82  and  _85
REMARK   33  A    between atoms: _85  and  _86
REMARK   34  A    between atoms: _86  and  _87
REMARK   35  A    between atoms: _90  and  _92
REMARK   36  A    between atoms: _92  and  _93
REMARK   37  A    between atoms: _92  and  _95
REMARK   38  A    between atoms: _95  and  _96
REMARK   39  A    between atoms: _99  and  _101
REMARK   40  A    between atoms: _101  and  _102
REMARK   41  A    between atoms: _105  and  _107
REMARK   42  A    between atoms: _107  and  _108
REMARK   43  A    between atoms: _107  and  _110
REMARK   44  A    between atoms: _110  and  _111
REMARK   45  A    between atoms: _114  and  _116
REMARK   46  A    between atoms: _116  and  _117
REMARK   47  A    between atoms: _116  and  _119
REMARK   48  A    between atoms: _122  and  _124
REMARK   49  A    between atoms: _124  and  _125
REMARK   50  A    between atoms: _124  and  _127
REMARK   51  A    between atoms: _127  and  _128
REMARK   52  A    between atoms: _130  and  _132
REMARK   53  A    between atoms: _132  and  _133
REMARK   54  A    between atoms: _132  and  _135
REMARK   55  A    between atoms: _138  and  _140
REMARK   56  A    between atoms: _140  and  _141
REMARK   57  A    between atoms: _140  and  _143
REMARK   58  A    between atoms: _143  and  _144
REMARK   59  A    between atoms: _144  and  _145
REMARK   60  A    between atoms: _150  and  _152
REMARK   61  A    between atoms: _152  and  _153
REMARK   62  A    between atoms: _152  and  _155
REMARK   63  A    between atoms: _155  and  _156
REMARK   64  A    between atoms: _156  and  _157
REMARK   65  A    between atoms: _160  and  _162
REMARK   66  A    between atoms: _162  and  _163
REMARK   67  A    between atoms: _162  and  _165
REMARK   68  A    between atoms: _165  and  _166
REMARK   69  A    between atoms: _169  and  _171
REMARK   70  A    between atoms: _171  and  _172
REMARK   71  A    between atoms: _175  and  _177
REMARK   72  A    between atoms: _177  and  _178
REMARK   73  A    between atoms: _177  and  _180
REMARK   74  A    between atoms: _180  and  _181
REMARK   75  A    between atoms: _184  and  _186
REMARK   76  A    between atoms: _186  and  _187
REMARK   77  A    between atoms: _186  and  _189
REMARK   78  A    between atoms: _189  and  _190
REMARK   79  A    between atoms: _190  and  _191
REMARK   80  A    between atoms: _194  and  _196
REMARK   81  A    between atoms: _196  and  _197
REMARK   82  A    between atoms: _196  and  _199
REMARK   83  A    between atoms: _202  and  _204
REMARK   84  A    between atoms: _204  and  _205
REMARK   85  A    between atoms: _204  and  _207
REMARK   86  A    between atoms: _207  and  _208
REMARK   87  A    between atoms: _208  and  _209
REMARK   88  A    between atoms: _211  and  _213
REMARK   89  A    between atoms: _213  and  _214
REMARK   90  A    between atoms: _213  and  _216
REMARK   91  A    between atoms: _216  and  _217
REMARK   92  A    between atoms: _220  and  _222
REMARK   93  A    between atoms: _222  and  _223
REMARK   94  A    between atoms: _222  and  _225
REMARK   95  A    between atoms: _225  and  _226
REMARK   96  A    between atoms: _229  and  _231
REMARK   97  A    between atoms: _231  and  _232
REMARK   98  A    between atoms: _231  and  _234
REMARK   99  A    between atoms: _234  and  _235
REMARK  100  A    between atoms: _235  and  _236
REMARK  101  A    between atoms: _239  and  _241
REMARK  102  A    between atoms: _241  and  _242
REMARK  103  A    between atoms: _241  and  _244
REMARK  104  A    between atoms: _244  and  _245
REMARK  105  A    between atoms: _248  and  _250
REMARK  106  A    between atoms: _250  and  _251
REMARK  107  A    between atoms: _250  and  _253
REMARK  108  A    between atoms: _253  and  _254
REMARK  109  A    between atoms: _256  and  _258
REMARK  110  A    between atoms: _258  and  _259
REMARK  111  A    between atoms: _258  and  _261
REMARK  112  A    between atoms: _261  and  _262
REMARK  113  A    between atoms: _262  and  _263
REMARK  114  A    between atoms: _263  and  _264
REMARK  115  A    between atoms: _273  and  _275
REMARK  116  A    between atoms: _275  and  _276
REMARK  117  A    between atoms: _275  and  _278
REMARK  118  A    between atoms: _278  and  _279
REMARK  119  A    between atoms: _279  and  _280
REMARK  120  A    between atoms: _280  and  _281
REMARK  121  A    between atoms: _290  and  _292
REMARK  122  A    between atoms: _292  and  _293
REMARK  123  A    between atoms: _292  and  _295
REMARK  124  A    between atoms: _295  and  _296
REMARK  125  A    between atoms: _299  and  _301
REMARK  126  A    between atoms: _301  and  _302
REMARK  127  A    between atoms: _301  and  _304
REMARK  128  A    between atoms: _304  and  _305
REMARK  129  A    between atoms: _308  and  _310
REMARK  130  A    between atoms: _310  and  _311
REMARK  131  A    between atoms: _310  and  _313
REMARK  132  A    between atoms: _313  and  _314
REMARK  133  A    between atoms: _320  and  _322
REMARK  134  A    between atoms: _322  and  _323
REMARK  135  A    between atoms: _322  and  _325
REMARK  136  A    between atoms: _325  and  _326
REMARK  137  A    between atoms: _329  and  _331
REMARK  138  A    between atoms: _331  and  _332
REMARK  139  A    between atoms: _331  and  _334
REMARK  140  A    between atoms: _334  and  _335
REMARK  141  A    between atoms: _335  and  _336
REMARK  142  A    between atoms: _336  and  _337
REMARK  143  A    between atoms: _337  and  _338
REMARK  144  A    between atoms: _342  and  _344
REMARK  145  A    between atoms: _344  and  _345
REMARK  146  A    between atoms: _344  and  _347
REMARK  147  A    between atoms: _347  and  _348
REMARK  148  A    between atoms: _351  and  _353
REMARK  149  A    between atoms: _353  and  _354
REMARK  150  A    between atoms: _353  and  _356
REMARK  151  A    between atoms: _356  and  _357
REMARK  152  A    between atoms: _363  and  _365
REMARK  153  A    between atoms: _365  and  _366
REMARK  154  A    between atoms: _365  and  _368
REMARK  155  A    between atoms: _368  and  _369
REMARK  156  A    between atoms: _374  and  _375
REMARK  157  A    between atoms: _377  and  _379
REMARK  158  A    between atoms: _379  and  _380
REMARK  159  A    between atoms: _379  and  _382
REMARK  160  A    between atoms: _382  and  _383
REMARK  161  A    between atoms: _388  and  _390
REMARK  162  A    between atoms: _390  and  _391
REMARK  163  A    between atoms: _390  and  _393
REMARK  164  A    between atoms: _393  and  _394
REMARK  165  A    between atoms: _394  and  _395
REMARK  166  A    between atoms: _395  and  _396
REMARK  167  A    between atoms: _405  and  _407
REMARK  168  A    between atoms: _407  and  _408
REMARK  169  A    between atoms: _407  and  _410
REMARK  170  A    between atoms: _410  and  _411
REMARK  171  A    between atoms: _414  and  _416
REMARK  172  A    between atoms: _416  and  _417
REMARK  173  A    between atoms: _416  and  _419
REMARK  174  A    between atoms: _419  and  _420
REMARK  175  A    between atoms: _426  and  _428
REMARK  176  A    between atoms: _428  and  _429
REMARK  177  A    between atoms: _432  and  _434
REMARK  178  A    between atoms: _434  and  _435
REMARK  179  A    between atoms: _438  and  _440
REMARK  180  A    between atoms: _440  and  _441
REMARK  181  A    between atoms: _443  and  _445
REMARK  182  A    between atoms: _445  and  _446
REMARK  183  A    between atoms: _445  and  _448
REMARK  184  A    between atoms: _448  and  _449
REMARK  185  A    between atoms: _452  and  _454
REMARK  186  A    between atoms: _454  and  _455
REMARK  187  A    between atoms: _454  and  _457
REMARK  188  A    between atoms: _457  and  _458
REMARK  189  A    between atoms: _458  and  _459
REMARK  190  A    between atoms: _464  and  _466
REMARK  191  A    between atoms: _466  and  _467
REMARK  192  A    between atoms: _466  and  _469
REMARK  193  A    between atoms: _472  and  _474
REMARK  194  A    between atoms: _474  and  _475
REMARK  195  A    between atoms: _474  and  _477
REMARK  196  A    between atoms: _477  and  _478
REMARK  197  A    between atoms: _478  and  _479
REMARK  198  A    between atoms: _482  and  _484
REMARK  199  A    between atoms: _484  and  _485
REMARK  200  A    between atoms: _484  and  _487
REMARK  201  A    between atoms: _487  and  _488
REMARK  202  A    between atoms: _494  and  _496
REMARK  203  A    between atoms: _496  and  _497
REMARK  204  A    between atoms: _496  and  _499
REMARK  205  A    between atoms: _499  and  _500
REMARK  206  A    between atoms: _503  and  _505
REMARK  207  A    between atoms: _505  and  _506
REMARK  208  A    between atoms: _505  and  _508
REMARK  209  A    between atoms: _508  and  _509
REMARK  210  A    between atoms: _515  and  _516
REMARK  211  A    between atoms: _521  and  _523
REMARK  212  A    between atoms: _523  and  _524
REMARK  213  A    between atoms: _523  and  _526
REMARK  214  A    between atoms: _526  and  _527
REMARK  215  A    between atoms: _530  and  _532
REMARK  216  A    between atoms: _532  and  _533
REMARK  217  A    between atoms: _532  and  _535
REMARK  218  A    between atoms: _535  and  _536
REMARK  219  A    between atoms: _542  and  _544
REMARK  220  A    between atoms: _544  and  _545
REMARK  221  A    between atoms: _544  and  _547
REMARK  222  A    between atoms: _547  and  _548
REMARK  223  A    between atoms: _548  and  _549
REMARK  224  A    between atoms: _552  and  _554
REMARK  225  A    between atoms: _554  and  _555
REMARK  226  A    between atoms: _554  and  _557
REMARK  227  A    between atoms: _557  and  _558
REMARK  228  A    between atoms: _560  and  _562
REMARK  229  A    between atoms: _562  and  _563
REMARK  230  A    between atoms: _562  and  _565
REMARK  231  A    between atoms: _565  and  _566
REMARK  232  A    between atoms: _569  and  _571
REMARK  233  A    between atoms: _571  and  _572
REMARK  234  A    between atoms: _571  and  _574
REMARK  235  A    between atoms: _577  and  _579
REMARK  236  A    between atoms: _579  and  _580
REMARK  237  A    between atoms: _579  and  _582
REMARK  238  A    between atoms: _582  and  _583
REMARK  239  A    between atoms: _588  and  _590
REMARK  240  A    between atoms: _590  and  _591
REMARK  241  A    between atoms: _590  and  _593
REMARK  242  A    between atoms: _593  and  _594
REMARK  243  A    between atoms: _596  and  _598
REMARK  244  A    between atoms: _598  and  _599
REMARK  245  A    between atoms: _598  and  _601
REMARK  246  A    between atoms: _601  and  _602
REMARK  247  A    between atoms: _602  and  _603
REMARK  248  A    between atoms: _606  and  _608
REMARK  249  A    between atoms: _608  and  _609
REMARK  250  A    between atoms: _608  and  _611
REMARK  251  A    between atoms: _611  and  _612
REMARK  252  A    between atoms: _612  and  _613
REMARK  253  A    between atoms: _618  and  _620
REMARK  254  A    between atoms: _620  and  _621
REMARK  255  A    between atoms: _620  and  _623
REMARK  256  A    between atoms: _626  and  _628
REMARK  257  A    between atoms: _628  and  _629
REMARK  258  A    between atoms: _628  and  _631
REMARK  259  A    between atoms: _631  and  _632
REMARK  260  A    between atoms: _638  and  _640
REMARK  261  A    between atoms: _640  and  _641
REMARK  262  A    between atoms: _640  and  _643
REMARK  263  A    between atoms: _643  and  _644
REMARK  264  A    between atoms: _647  and  _649
REMARK  265  A    between atoms: _649  and  _650
REMARK  266  A    between atoms: _649  and  _652
REMARK  267  A    between atoms: _652  and  _653
REMARK  268  A    between atoms: _653  and  _654
REMARK  269  A    between atoms: _654  and  _655
REMARK  270  A    between atoms: _655  and  _656
REMARK  271  A    between atoms: _660  and  _662
REMARK  272  A    between atoms: _662  and  _663
REMARK  273  A    between atoms: _662  and  _665
REMARK  274  A    between atoms: _665  and  _666
REMARK  275  A    between atoms: _666  and  _667
REMARK  276  A    between atoms: _667  and  _668
REMARK  277  A    between atoms: _668  and  _669
REMARK  278  A    between atoms: _673  and  _675
REMARK  279  A    between atoms: _675  and  _676
REMARK  280  A    between atoms: _675  and  _678
REMARK  281  A    between atoms: _678  and  _679
REMARK  282  A    between atoms: _683  and  _684
REMARK  283  A    between atoms: _689  and  _691
REMARK  284  A    between atoms: _691  and  _692
REMARK  285  A    between atoms: _691  and  _694
REMARK  286  A    between atoms: _694  and  _695
REMARK  287  A    between atoms: _698  and  _700
REMARK  288  A    between atoms: _700  and  _701
REMARK  289  A    between atoms: _700  and  _703
REMARK  290  A    between atoms: _703  and  _704
REMARK  291  A    between atoms: _714  and  _716
REMARK  292  A    between atoms: _716  and  _717
REMARK  293  A    between atoms: _716  and  _719
REMARK  294  A    between atoms: _719  and  _720
REMARK                            x       y       z     vdW  Elec       q    Type
REMARK                         _______ _______ _______ _____ _____    ______ ____
ROOT
ATOM      1  O   HOH     1      53.071  17.287  -5.644  0.00  0.00    +0.000 OA
ENDROOT
TORSDOF 0
REMARK  Name = ../refined-set-2016/3ipq/3ipq_pocket.pdb
REMARK  294 active torsions:
REMARK  status: ('A' for Active; 'I' for Inactive)
REMARK    1  A    between atoms: _1  and  _3
REMARK    2  A    between atoms: _3  and  _4
REMARK    3  A    between atoms: _3  and  _6
REMARK    4  A    between atoms: _6  and  _7
REMARK    5  A    between atoms: _7  and  _8
REMARK    6  A    between atoms: _13  and  _15
REMARK    7  A    between atoms: _15  and  _16
REMARK    8  A    between atoms: _15  and  _18
REMARK    9  A    between atoms: _18  and  _19
REMARK   10  A    between atoms: _19  and  _20
REMARK   11  A    between atoms: _20  and  _21
REMARK   12  A    between atoms: _30  and  _32
REMARK   13  A    between atoms: _32  and  _33
REMARK   14  A    between atoms: _32  and  _35
REMARK   15  A    between atoms: _35  and  _36
REMARK   16  A    between atoms: _42  and  _44
REMARK   17  A    between atoms: _44  and  _45
REMARK   18  A    between atoms: _48  and  _50
REMARK   19  A    between atoms: _50  and  _51
REMARK   20  A    between atoms: _50  and  _53
REMARK   21  A    between atoms: _53  and  _54
REMARK   22  A    between atoms: _59  and  _61
REMARK   23  A    between atoms: _61  and  _62
REMARK   24  A    between atoms: _61  and  _64
REMARK   25  A    between atoms: _64  and  _65
REMARK   26  A    between atoms: _71  and  _73
REMARK   27  A    between atoms: _73  and  _74
REMARK   28  A    between atoms: _73  and  _76
REMARK   29  A    between atoms: _76  and  _77
REMARK   30  A    between atoms: _80  and  _82
REMARK   31  A    between atoms: _82  and  _83
REMARK   32  A    between atoms: _82  and  _85
REMARK   33  A    between atoms: _85  and  _86
REMARK   34  A    between atoms: _86  and  _87
REMARK   35  A    between atoms: _90  and  _92
REMARK   36  A    between atoms: _92  and  _93
REMARK   37  A    between atoms: _92  and  _95
REMARK   38  A    between atoms: _95  and  _96
REMARK   39  A    between atoms: _99  and  _101
REMARK   40  A    between atoms: _101  and  _102
REMARK   41  A    between atoms: _105  and  _107
REMARK   42  A    between atoms: _107  and  _108
REMARK   43  A    between atoms: _107  and  _110
REMARK   44  A    between atoms: _110  and  _111
REMARK   45  A    between atoms: _114  and  _116
REMARK   46  A    between atoms: _116  and  _117
REMARK   47  A    between atoms: _116  and  _119
REMARK   48  A    between atoms: _122  and  _124
REMARK   49  A    between atoms: _124  and  _125
REMARK   50  A    between atoms: _124  and  _127
REMARK   51  A    between atoms: _127  and  _128
REMARK   52  A    between atoms: _130  and  _132
REMARK   53  A    between atoms: _132  and  _133
REMARK   54  A    between atoms: _132  and  _135
REMARK   55  A    between atoms: _138  and  _140
REMARK   56  A    between atoms: _140  and  _141
REMARK   57  A    between atoms: _140  and  _143
REMARK   58  A    between atoms: _143  and  _144
REMARK   59  A    between atoms: _144  and  _145
REMARK   60  A    between atoms: _150  and  _152
REMARK   61  A    between atoms: _152  and  _153
REMARK   62  A    between atoms: _152  and  _155
REMARK   63  A    between atoms: _155  and  _156
REMARK   64  A    between atoms: _156  and  _157
REMARK   65  A    between atoms: _160  and  _162
REMARK   66  A    between atoms: _162  and  _163
REMARK   67  A    between atoms: _162  and  _165
REMARK   68  A    between atoms: _165  and  _166
REMARK   69  A    between atoms: _169  and  _171
REMARK   70  A    between atoms: _171  and  _172
REMARK   71  A    between atoms: _175  and  _177
REMARK   72  A    between atoms: _177  and  _178
REMARK   73  A    between atoms: _177  and  _180
REMARK   74  A    between atoms: _180  and  _181
REMARK   75  A    between atoms: _184  and  _186
REMARK   76  A    between atoms: _186  and  _187
REMARK   77  A    between atoms: _186  and  _189
REMARK   78  A    between atoms: _189  and  _190
REMARK   79  A    between atoms: _190  and  _191
REMARK   80  A    between atoms: _194  and  _196
REMARK   81  A    between atoms: _196  and  _197
REMARK   82  A    between atoms: _196  and  _199
REMARK   83  A    between atoms: _202  and  _204
REMARK   84  A    between atoms: _204  and  _205
REMARK   85  A    between atoms: _204  and  _207
REMARK   86  A    between atoms: _207  and  _208
REMARK   87  A    between atoms: _208  and  _209
REMARK   88  A    between atoms: _211  and  _213
REMARK   89  A    between atoms: _213  and  _214
REMARK   90  A    between atoms: _213  and  _216
REMARK   91  A    between atoms: _216  and  _217
REMARK   92  A    between atoms: _220  and  _222
REMARK   93  A    between atoms: _222  and  _223
REMARK   94  A    between atoms: _222  and  _225
REMARK   95  A    between atoms: _225  and  _226
REMARK   96  A    between atoms: _229  and  _231
REMARK   97  A    between atoms: _231  and  _232
REMARK   98  A    between atoms: _231  and  _234
REMARK   99  A    between atoms: _234  and  _235
REMARK  100  A    between atoms: _235  and  _236
REMARK  101  A    between atoms: _239  and  _241
REMARK  102  A    between atoms: _241  and  _242
REMARK  103  A    between atoms: _241  and  _244
REMARK  104  A    between atoms: _244  and  _245
REMARK  105  A    between atoms: _248  and  _250
REMARK  106  A    between atoms: _250  and  _251
REMARK  107  A    between atoms: _250  and  _253
REMARK  108  A    between atoms: _253  and  _254
REMARK  109  A    between atoms: _256  and  _258
REMARK  110  A    between atoms: _258  and  _259
REMARK  111  A    between atoms: _258  and  _261
REMARK  112  A    between atoms: _261  and  _262
REMARK  113  A    between atoms: _262  and  _263
REMARK  114  A    between atoms: _263  and  _264
REMARK  115  A    between atoms: _273  and  _275
REMARK  116  A    between atoms: _275  and  _276
REMARK  117  A    between atoms: _275  and  _278
REMARK  118  A    between atoms: _278  and  _279
REMARK  119  A    between atoms: _279  and  _280
REMARK  120  A    between atoms: _280  and  _281
REMARK  121  A    between atoms: _290  and  _292
REMARK  122  A    between atoms: _292  and  _293
REMARK  123  A    between atoms: _292  and  _295
REMARK  124  A    between atoms: _295  and  _296
REMARK  125  A    between atoms: _299  and  _301
REMARK  126  A    between atoms: _301  and  _302
REMARK  127  A    between atoms: _301  and  _304
REMARK  128  A    between atoms: _304  and  _305
REMARK  129  A    between atoms: _308  and  _310
REMARK  130  A    between atoms: _310  and  _311
REMARK  131  A    between atoms: _310  and  _313
REMARK  132  A    between atoms: _313  and  _314
REMARK  133  A    between atoms: _320  and  _322
REMARK  134  A    between atoms: _322  and  _323
REMARK  135  A    between atoms: _322  and  _325
REMARK  136  A    between atoms: _325  and  _326
REMARK  137  A    between atoms: _329  and  _331
REMARK  138  A    between atoms: _331  and  _332
REMARK  139  A    between atoms: _331  and  _334
REMARK  140  A    between atoms: _334  and  _335
REMARK  141  A    between atoms: _335  and  _336
REMARK  142  A    between atoms: _336  and  _337
REMARK  143  A    between atoms: _337  and  _338
REMARK  144  A    between atoms: _342  and  _344
REMARK  145  A    between atoms: _344  and  _345
REMARK  146  A    between atoms: _344  and  _347
REMARK  147  A    between atoms: _347  and  _348
REMARK  148  A    between atoms: _351  and  _353
REMARK  149  A    between atoms: _353  and  _354
REMARK  150  A    between atoms: _353  and  _356
REMARK  151  A    between atoms: _356  and  _357
REMARK  152  A    between atoms: _363  and  _365
REMARK  153  A    between atoms: _365  and  _366
REMARK  154  A    between atoms: _365  and  _368
REMARK  155  A    between atoms: _368  and  _369
REMARK  156  A    between atoms: _374  and  _375
REMARK  157  A    between atoms: _377  and  _379
REMARK  158  A    between atoms: _379  and  _380
REMARK  159  A    between atoms: _379  and  _382
REMARK  160  A    between atoms: _382  and  _383
REMARK  161  A    between atoms: _388  and  _390
REMARK  162  A    between atoms: _390  and  _391
REMARK  163  A    between atoms: _390  and  _393
REMARK  164  A    between atoms: _393  and  _394
REMARK  165  A    between atoms: _394  and  _395
REMARK  166  A    between atoms: _395  and  _396
REMARK  167  A    between atoms: _405  and  _407
REMARK  168  A    between atoms: _407  and  _408
REMARK  169  A    between atoms: _407  and  _410
REMARK  170  A    between atoms: _410  and  _411
REMARK  171  A    between atoms: _414  and  _416
REMARK  172  A    between atoms: _416  and  _417
REMARK  173  A    between atoms: _416  and  _419
REMARK  174  A    between atoms: _419  and  _420
REMARK  175  A    between atoms: _426  and  _428
REMARK  176  A    between atoms: _428  and  _429
REMARK  177  A    between atoms: _432  and  _434
REMARK  178  A    between atoms: _434  and  _435
REMARK  179  A    between atoms: _438  and  _440
REMARK  180  A    between atoms: _440  and  _441
REMARK  181  A    between atoms: _443  and  _445
REMARK  182  A    between atoms: _445  and  _446
REMARK  183  A    between atoms: _445  and  _448
REMARK  184  A    between atoms: _448  and  _449
REMARK  185  A    between atoms: _452  and  _454
REMARK  186  A    between atoms: _454  and  _455
REMARK  187  A    between atoms: _454  and  _457
REMARK  188  A    between atoms: _457  and  _458
REMARK  189  A    between atoms: _458  and  _459
REMARK  190  A    between atoms: _464  and  _466
REMARK  191  A    between atoms: _466  and  _467
REMARK  192  A    between atoms: _466  and  _469
REMARK  193  A    between atoms: _472  and  _474
REMARK  194  A    between atoms: _474  and  _475
REMARK  195  A    between atoms: _474  and  _477
REMARK  196  A    between atoms: _477  and  _478
REMARK  197  A    between atoms: _478  and  _479
REMARK  198  A    between atoms: _482  and  _484
REMARK  199  A    between atoms: _484  and  _485
REMARK  200  A    between atoms: _484  and  _487
REMARK  201  A    between atoms: _487  and  _488
REMARK  202  A    between atoms: _494  and  _496
REMARK  203  A    between atoms: _496  and  _497
REMARK  204  A    between atoms: _496  and  _499
REMARK  205  A    between atoms: _499  and  _500
REMARK  206  A    between atoms: _503  and  _505
REMARK  207  A    between atoms: _505  and  _506
REMARK  208  A    between atoms: _505  and  _508
REMARK  209  A    between atoms: _508  and  _509
REMARK  210  A    between atoms: _515  and  _516
REMARK  211  A    between atoms: _521  and  _523
REMARK  212  A    between atoms: _523  and  _524
REMARK  213  A    between atoms: _523  and  _526
REMARK  214  A    between atoms: _526  and  _527
REMARK  215  A    between atoms: _530  and  _532
REMARK  216  A    between atoms: _532  and  _533
REMARK  217  A    between atoms: _532  and  _535
REMARK  218  A    between atoms: _535  and  _536
REMARK  219  A    between atoms: _542  and  _544
REMARK  220  A    between atoms: _544  and  _545
REMARK  221  A    between atoms: _544  and  _547
REMARK  222  A    between atoms: _547  and  _548
REMARK  223  A    between atoms: _548  and  _549
REMARK  224  A    between atoms: _552  and  _554
REMARK  225  A    between atoms: _554  and  _555
REMARK  226  A    between atoms: _554  and  _557
REMARK  227  A    between atoms: _557  and  _558
REMARK  228  A    between atoms: _560  and  _562
REMARK  229  A    between atoms: _562  and  _563
REMARK  230  A    between atoms: _562  and  _565
REMARK  231  A    between atoms: _565  and  _566
REMARK  232  A    between atoms: _569  and  _571
REMARK  233  A    between atoms: _571  and  _572
REMARK  234  A    between atoms: _571  and  _574
REMARK  235  A    between atoms: _577  and  _579
REMARK  236  A    between atoms: _579  and  _580
REMARK  237  A    between atoms: _579  and  _582
REMARK  238  A    between atoms: _582  and  _583
REMARK  239  A    between atoms: _588  and  _590
REMARK  240  A    between atoms: _590  and  _591
REMARK  241  A    between atoms: _590  and  _593
REMARK  242  A    between atoms: _593  and  _594
REMARK  243  A    between atoms: _596  and  _598
REMARK  244  A    between atoms: _598  and  _599
REMARK  245  A    between atoms: _598  and  _601
REMARK  246  A    between atoms: _601  and  _602
REMARK  247  A    between atoms: _602  and  _603
REMARK  248  A    between atoms: _606  and  _608
REMARK  249  A    between atoms: _608  and  _609
REMARK  250  A    between atoms: _608  and  _611
REMARK  251  A    between atoms: _611  and  _612
REMARK  252  A    between atoms: _612  and  _613
REMARK  253  A    between atoms: _618  and  _620
REMARK  254  A    between atoms: _620  and  _621
REMARK  255  A    between atoms: _620  and  _623
REMARK  256  A    between atoms: _626  and  _628
REMARK  257  A    between atoms: _628  and  _629
REMARK  258  A    between atoms: _628  and  _631
REMARK  259  A    between atoms: _631  and  _632
REMARK  260  A    between atoms: _638  and  _640
REMARK  261  A    between atoms: _640  and  _641
REMARK  262  A    between atoms: _640  and  _643
REMARK  263  A    between atoms: _643  and  _644
REMARK  264  A    between atoms: _647  and  _649
REMARK  265  A    between atoms: _649  and  _650
REMARK  266  A    between atoms: _649  and  _652
REMARK  267  A    between atoms: _652  and  _653
REMARK  268  A    between atoms: _653  and  _654
REMARK  269  A    between atoms: _654  and  _655
REMARK  270  A    between atoms: _655  and  _656
REMARK  271  A    between atoms: _660  and  _662
REMARK  272  A    between atoms: _662  and  _663
REMARK  273  A    between atoms: _662  and  _665
REMARK  274  A    between atoms: _665  and  _666
REMARK  275  A    between atoms: _666  and  _667
REMARK  276  A    between atoms: _667  and  _668
REMARK  277  A    between atoms: _668  and  _669
REMARK  278  A    between atoms: _673  and  _675
REMARK  279  A    between atoms: _675  and  _676
REMARK  280  A    between atoms: _675  and  _678
REMARK  281  A    between atoms: _678  and  _679
REMARK  282  A    between atoms: _683  and  _684
REMARK  283  A    between atoms: _689  and  _691
REMARK  284  A    between atoms: _691  and  _692
REMARK  285  A    between atoms: _691  and  _694
REMARK  286  A    between atoms: _694  and  _695
REMARK  287  A    between atoms: _698  and  _700
REMARK  288  A    between atoms: _700  and  _701
REMARK  289  A    between atoms: _700  and  _703
REMARK  290  A    between atoms: _703  and  _704
REMARK  291  A    between atoms: _714  and  _716
REMARK  292  A    between atoms: _716  and  _717
REMARK  293  A    between atoms: _716  and  _719
REMARK  294  A    between atoms: _719  and  _720
REMARK                            x       y       z     vdW  Elec       q    Type
REMARK                         _______ _______ _______ _____ _____    ______ ____
ROOT
ATOM      1  O   HOH     1      30.393  18.229   3.139  0.00  0.00    +0.000 OA
ENDROOT
TORSDOF 0
REMARK  Name = ../refined-set-2016/3ipq/3ipq_pocket.pdb
REMARK  294 active torsions:
REMARK  status: ('A' for Active; 'I' for Inactive)
REMARK    1  A    between atoms: _1  and  _3
REMARK    2  A    between atoms: _3  and  _4
REMARK    3  A    between atoms: _3  and  _6
REMARK    4  A    between atoms: _6  and  _7
REMARK    5  A    between atoms: _7  and  _8
REMARK    6  A    between atoms: _13  and  _15
REMARK    7  A    between atoms: _15  and  _16
REMARK    8  A    between atoms: _15  and  _18
REMARK    9  A    between atoms: _18  and  _19
REMARK   10  A    between atoms: _19  and  _20
REMARK   11  A    between atoms: _20  and  _21
REMARK   12  A    between atoms: _30  and  _32
REMARK   13  A    between atoms: _32  and  _33
REMARK   14  A    between atoms: _32  and  _35
REMARK   15  A    between atoms: _35  and  _36
REMARK   16  A    between atoms: _42  and  _44
REMARK   17  A    between atoms: _44  and  _45
REMARK   18  A    between atoms: _48  and  _50
REMARK   19  A    between atoms: _50  and  _51
REMARK   20  A    between atoms: _50  and  _53
REMARK   21  A    between atoms: _53  and  _54
REMARK   22  A    between atoms: _59  and  _61
REMARK   23  A    between atoms: _61  and  _62
REMARK   24  A    between atoms: _61  and  _64
REMARK   25  A    between atoms: _64  and  _65
REMARK   26  A    between atoms: _71  and  _73
REMARK   27  A    between atoms: _73  and  _74
REMARK   28  A    between atoms: _73  and  _76
REMARK   29  A    between atoms: _76  and  _77
REMARK   30  A    between atoms: _80  and  _82
REMARK   31  A    between atoms: _82  and  _83
REMARK   32  A    between atoms: _82  and  _85
REMARK   33  A    between atoms: _85  and  _86
REMARK   34  A    between atoms: _86  and  _87
REMARK   35  A    between atoms: _90  and  _92
REMARK   36  A    between atoms: _92  and  _93
REMARK   37  A    between atoms: _92  and  _95
REMARK   38  A    between atoms: _95  and  _96
REMARK   39  A    between atoms: _99  and  _101
REMARK   40  A    between atoms: _101  and  _102
REMARK   41  A    between atoms: _105  and  _107
REMARK   42  A    between atoms: _107  and  _108
REMARK   43  A    between atoms: _107  and  _110
REMARK   44  A    between atoms: _110  and  _111
REMARK   45  A    between atoms: _114  and  _116
REMARK   46  A    between atoms: _116  and  _117
REMARK   47  A    between atoms: _116  and  _119
REMARK   48  A    between atoms: _122  and  _124
REMARK   49  A    between atoms: _124  and  _125
REMARK   50  A    between atoms: _124  and  _127
REMARK   51  A    between atoms: _127  and  _128
REMARK   52  A    between atoms: _130  and  _132
REMARK   53  A    between atoms: _132  and  _133
REMARK   54  A    between atoms: _132  and  _135
REMARK   55  A    between atoms: _138  and  _140
REMARK   56  A    between atoms: _140  and  _141
REMARK   57  A    between atoms: _140  and  _143
REMARK   58  A    between atoms: _143  and  _144
REMARK   59  A    between atoms: _144  and  _145
REMARK   60  A    between atoms: _150  and  _152
REMARK   61  A    between atoms: _152  and  _153
REMARK   62  A    between atoms: _152  and  _155
REMARK   63  A    between atoms: _155  and  _156
REMARK   64  A    between atoms: _156  and  _157
REMARK   65  A    between atoms: _160  and  _162
REMARK   66  A    between atoms: _162  and  _163
REMARK   67  A    between atoms: _162  and  _165
REMARK   68  A    between atoms: _165  and  _166
REMARK   69  A    between atoms: _169  and  _171
REMARK   70  A    between atoms: _171  and  _172
REMARK   71  A    between atoms: _175  and  _177
REMARK   72  A    between atoms: _177  and  _178
REMARK   73  A    between atoms: _177  and  _180
REMARK   74  A    between atoms: _180  and  _181
REMARK   75  A    between atoms: _184  and  _186
REMARK   76  A    between atoms: _186  and  _187
REMARK   77  A    between atoms: _186  and  _189
REMARK   78  A    between atoms: _189  and  _190
REMARK   79  A    between atoms: _190  and  _191
REMARK   80  A    between atoms: _194  and  _196
REMARK   81  A    between atoms: _196  and  _197
REMARK   82  A    between atoms: _196  and  _199
REMARK   83  A    between atoms: _202  and  _204
REMARK   84  A    between atoms: _204  and  _205
REMARK   85  A    between atoms: _204  and  _207
REMARK   86  A    between atoms: _207  and  _208
REMARK   87  A    between atoms: _208  and  _209
REMARK   88  A    between atoms: _211  and  _213
REMARK   89  A    between atoms: _213  and  _214
REMARK   90  A    between atoms: _213  and  _216
REMARK   91  A    between atoms: _216  and  _217
REMARK   92  A    between atoms: _220  and  _222
REMARK   93  A    between atoms: _222  and  _223
REMARK   94  A    between atoms: _222  and  _225
REMARK   95  A    between atoms: _225  and  _226
REMARK   96  A    between atoms: _229  and  _231
REMARK   97  A    between atoms: _231  and  _232
REMARK   98  A    between atoms: _231  and  _234
REMARK   99  A    between atoms: _234  and  _235
REMARK  100  A    between atoms: _235  and  _236
REMARK  101  A    between atoms: _239  and  _241
REMARK  102  A    between atoms: _241  and  _242
REMARK  103  A    between atoms: _241  and  _244
REMARK  104  A    between atoms: _244  and  _245
REMARK  105  A    between atoms: _248  and  _250
REMARK  106  A    between atoms: _250  and  _251
REMARK  107  A    between atoms: _250  and  _253
REMARK  108  A    between atoms: _253  and  _254
REMARK  109  A    between atoms: _256  and  _258
REMARK  110  A    between atoms: _258  and  _259
REMARK  111  A    between atoms: _258  and  _261
REMARK  112  A    between atoms: _261  and  _262
REMARK  113  A    between atoms: _262  and  _263
REMARK  114  A    between atoms: _263  and  _264
REMARK  115  A    between atoms: _273  and  _275
REMARK  116  A    between atoms: _275  and  _276
REMARK  117  A    between atoms: _275  and  _278
REMARK  118  A    between atoms: _278  and  _279
REMARK  119  A    between atoms: _279  and  _280
REMARK  120  A    between atoms: _280  and  _281
REMARK  121  A    between atoms: _290  and  _292
REMARK  122  A    between atoms: _292  and  _293
REMARK  123  A    between atoms: _292  and  _295
REMARK  124  A    between atoms: _295  and  _296
REMARK  125  A    between atoms: _299  and  _301
REMARK  126  A    between atoms: _301  and  _302
REMARK  127  A    between atoms: _301  and  _304
REMARK  128  A    between atoms: _304  and  _305
REMARK  129  A    between atoms: _308  and  _310
REMARK  130  A    between atoms: _310  and  _311
REMARK  131  A    between atoms: _310  and  _313
REMARK  132  A    between atoms: _313  and  _314
REMARK  133  A    between atoms: _320  and  _322
REMARK  134  A    between atoms: _322  and  _323
REMARK  135  A    between atoms: _322  and  _325
REMARK  136  A    between atoms: _325  and  _326
REMARK  137  A    between atoms: _329  and  _331
REMARK  138  A    between atoms: _331  and  _332
REMARK  139  A    between atoms: _331  and  _334
REMARK  140  A    between atoms: _334  and  _335
REMARK  141  A    between atoms: _335  and  _336
REMARK  142  A    between atoms: _336  and  _337
REMARK  143  A    between atoms: _337  and  _338
REMARK  144  A    between atoms: _342  and  _344
REMARK  145  A    between atoms: _344  and  _345
REMARK  146  A    between atoms: _344  and  _347
REMARK  147  A    between atoms: _347  and  _348
REMARK  148  A    between atoms: _351  and  _353
REMARK  149  A    between atoms: _353  and  _354
REMARK  150  A    between atoms: _353  and  _356
REMARK  151  A    between atoms: _356  and  _357
REMARK  152  A    between atoms: _363  and  _365
REMARK  153  A    between atoms: _365  and  _366
REMARK  154  A    between atoms: _365  and  _368
REMARK  155  A    between atoms: _368  and  _369
REMARK  156  A    between atoms: _374  and  _375
REMARK  157  A    between atoms: _377  and  _379
REMARK  158  A    between atoms: _379  and  _380
REMARK  159  A    between atoms: _379  and  _382
REMARK  160  A    between atoms: _382  and  _383
REMARK  161  A    between atoms: _388  and  _390
REMARK  162  A    between atoms: _390  and  _391
REMARK  163  A    between atoms: _390  and  _393
REMARK  164  A    between atoms: _393  and  _394
REMARK  165  A    between atoms: _394  and  _395
REMARK  166  A    between atoms: _395  and  _396
REMARK  167  A    between atoms: _405  and  _407
REMARK  168  A    between atoms: _407  and  _408
REMARK  169  A    between atoms: _407  and  _410
REMARK  170  A    between atoms: _410  and  _411
REMARK  171  A    between atoms: _414  and  _416
REMARK  172  A    between atoms: _416  and  _417
REMARK  173  A    between atoms: _416  and  _419
REMARK  174  A    between atoms: _419  and  _420
REMARK  175  A    between atoms: _426  and  _428
REMARK  176  A    between atoms: _428  and  _429
REMARK  177  A    between atoms: _432  and  _434
REMARK  178  A    between atoms: _434  and  _435
REMARK  179  A    between atoms: _438  and  _440
REMARK  180  A    between atoms: _440  and  _441
REMARK  181  A    between atoms: _443  and  _445
REMARK  182  A    between atoms: _445  and  _446
REMARK  183  A    between atoms: _445  and  _448
REMARK  184  A    between atoms: _448  and  _449
REMARK  185  A    between atoms: _452  and  _454
REMARK  186  A    between atoms: _454  and  _455
REMARK  187  A    between atoms: _454  and  _457
REMARK  188  A    between atoms: _457  and  _458
REMARK  189  A    between atoms: _458  and  _459
REMARK  190  A    between atoms: _464  and  _466
REMARK  191  A    between atoms: _466  and  _467
REMARK  192  A    between atoms: _466  and  _469
REMARK  193  A    between atoms: _472  and  _474
REMARK  194  A    between atoms: _474  and  _475
REMARK  195  A    between atoms: _474  and  _477
REMARK  196  A    between atoms: _477  and  _478
REMARK  197  A    between atoms: _478  and  _479
REMARK  198  A    between atoms: _482  and  _484
REMARK  199  A    between atoms: _484  and  _485
REMARK  200  A    between atoms: _484  and  _487
REMARK  201  A    between atoms: _487  and  _488
REMARK  202  A    between atoms: _494  and  _496
REMARK  203  A    between atoms: _496  and  _497
REMARK  204  A    between atoms: _496  and  _499
REMARK  205  A    between atoms: _499  and  _500
REMARK  206  A    between atoms: _503  and  _505
REMARK  207  A    between atoms: _505  and  _506
REMARK  208  A    between atoms: _505  and  _508
REMARK  209  A    between atoms: _508  and  _509
REMARK  210  A    between atoms: _515  and  _516
REMARK  211  A    between atoms: _521  and  _523
REMARK  212  A    between atoms: _523  and  _524
REMARK  213  A    between atoms: _523  and  _526
REMARK  214  A    between atoms: _526  and  _527
REMARK  215  A    between atoms: _530  and  _532
REMARK  216  A    between atoms: _532  and  _533
REMARK  217  A    between atoms: _532  and  _535
REMARK  218  A    between atoms: _535  and  _536
REMARK  219  A    between atoms: _542  and  _544
REMARK  220  A    between atoms: _544  and  _545
REMARK  221  A    between atoms: _544  and  _547
REMARK  222  A    between atoms: _547  and  _548
REMARK  223  A    between atoms: _548  and  _549
REMARK  224  A    between atoms: _552  and  _554
REMARK  225  A    between atoms: _554  and  _555
REMARK  226  A    between atoms: _554  and  _557
REMARK  227  A    between atoms: _557  and  _558
REMARK  228  A    between atoms: _560  and  _562
REMARK  229  A    between atoms: _562  and  _563
REMARK  230  A    between atoms: _562  and  _565
REMARK  231  A    between atoms: _565  and  _566
REMARK  232  A    between atoms: _569  and  _571
REMARK  233  A    between atoms: _571  and  _572
REMARK  234  A    between atoms: _571  and  _574
REMARK  235  A    between atoms: _577  and  _579
REMARK  236  A    between atoms: _579  and  _580
REMARK  237  A    between atoms: _579  and  _582
REMARK  238  A    between atoms: _582  and  _583
REMARK  239  A    between atoms: _588  and  _590
REMARK  240  A    between atoms: _590  and  _591
REMARK  241  A    between atoms: _590  and  _593
REMARK  242  A    between atoms: _593  and  _594
REMARK  243  A    between atoms: _596  and  _598
REMARK  244  A    between atoms: _598  and  _599
REMARK  245  A    between atoms: _598  and  _601
REMARK  246  A    between atoms: _601  and  _602
REMARK  247  A    between atoms: _602  and  _603
REMARK  248  A    between atoms: _606  and  _608
REMARK  249  A    between atoms: _608  and  _609
REMARK  250  A    between atoms: _608  and  _611
REMARK  251  A    between atoms: _611  and  _612
REMARK  252  A    between atoms: _612  and  _613
REMARK  253  A    between atoms: _618  and  _620
REMARK  254  A    between atoms: _620  and  _621
REMARK  255  A    between atoms: _620  and  _623
REMARK  256  A    between atoms: _626  and  _628
REMARK  257  A    between atoms: _628  and  _629
REMARK  258  A    between atoms: _628  and  _631
REMARK  259  A    between atoms: _631  and  _632
REMARK  260  A    between atoms: _638  and  _640
REMARK  261  A    between atoms: _640  and  _641
REMARK  262  A    between atoms: _640  and  _643
REMARK  263  A    between atoms: _643  and  _644
REMARK  264  A    between atoms: _647  and  _649
REMARK  265  A    between atoms: _649  and  _650
REMARK  266  A    between atoms: _649  and  _652
REMARK  267  A    between atoms: _652  and  _653
REMARK  268  A    between atoms: _653  and  _654
REMARK  269  A    between atoms: _654  and  _655
REMARK  270  A    between atoms: _655  and  _656
REMARK  271  A    between atoms: _660  and  _662
REMARK  272  A    between atoms: _662  and  _663
REMARK  273  A    between atoms: _662  and  _665
REMARK  274  A    between atoms: _665  and  _666
REMARK  275  A    between atoms: _666  and  _667
REMARK  276  A    between atoms: _667  and  _668
REMARK  277  A    between atoms: _668  and  _669
REMARK  278  A    between atoms: _673  and  _675
REMARK  279  A    between atoms: _675  and  _676
REMARK  280  A    between atoms: _675  and  _678
REMARK  281  A    between atoms: _678  and  _679
REMARK  282  A    between atoms: _683  and  _684
REMARK  283  A    between atoms: _689  and  _691
REMARK  284  A    between atoms: _691  and  _692
REMARK  285  A    between atoms: _691  and  _694
REMARK  286  A    between atoms: _694  and  _695
REMARK  287  A    between atoms: _698  and  _700
REMARK  288  A    between atoms: _700  and  _701
REMARK  289  A    between atoms: _700  and  _703
REMARK  290  A    between atoms: _703  and  _704
REMARK  291  A    between atoms: _714  and  _716
REMARK  292  A    between atoms: _716  and  _717
REMARK  293  A    between atoms: _716  and  _719
REMARK  294  A    between atoms: _719  and  _720
REMARK                            x       y       z     vdW  Elec       q    Type
REMARK                         _______ _______ _______ _____ _____    ______ ____
ROOT
ATOM      1  O   HOH     1      28.937  12.657  -8.196  0.00  0.00    +0.000 OA
ENDROOT
TORSDOF 0
REMARK  Name = ../refined-set-2016/3ipq/3ipq_pocket.pdb
REMARK  294 active torsions:
REMARK  status: ('A' for Active; 'I' for Inactive)
REMARK    1  A    between atoms: _1  and  _3
REMARK    2  A    between atoms: _3  and  _4
REMARK    3  A    between atoms: _3  and  _6
REMARK    4  A    between atoms: _6  and  _7
REMARK    5  A    between atoms: _7  and  _8
REMARK    6  A    between atoms: _13  and  _15
REMARK    7  A    between atoms: _15  and  _16
REMARK    8  A    between atoms: _15  and  _18
REMARK    9  A    between atoms: _18  and  _19
REMARK   10  A    between atoms: _19  and  _20
REMARK   11  A    between atoms: _20  and  _21
REMARK   12  A    between atoms: _30  and  _32
REMARK   13  A    between atoms: _32  and  _33
REMARK   14  A    between atoms: _32  and  _35
REMARK   15  A    between atoms: _35  and  _36
REMARK   16  A    between atoms: _42  and  _44
REMARK   17  A    between atoms: _44  and  _45
REMARK   18  A    between atoms: _48  and  _50
REMARK   19  A    between atoms: _50  and  _51
REMARK   20  A    between atoms: _50  and  _53
REMARK   21  A    between atoms: _53  and  _54
REMARK   22  A    between atoms: _59  and  _61
REMARK   23  A    between atoms: _61  and  _62
REMARK   24  A    between atoms: _61  and  _64
REMARK   25  A    between atoms: _64  and  _65
REMARK   26  A    between atoms: _71  and  _73
REMARK   27  A    between atoms: _73  and  _74
REMARK   28  A    between atoms: _73  and  _76
REMARK   29  A    between atoms: _76  and  _77
REMARK   30  A    between atoms: _80  and  _82
REMARK   31  A    between atoms: _82  and  _83
REMARK   32  A    between atoms: _82  and  _85
REMARK   33  A    between atoms: _85  and  _86
REMARK   34  A    between atoms: _86  and  _87
REMARK   35  A    between atoms: _90  and  _92
REMARK   36  A    between atoms: _92  and  _93
REMARK   37  A    between atoms: _92  and  _95
REMARK   38  A    between atoms: _95  and  _96
REMARK   39  A    between atoms: _99  and  _101
REMARK   40  A    between atoms: _101  and  _102
REMARK   41  A    between atoms: _105  and  _107
REMARK   42  A    between atoms: _107  and  _108
REMARK   43  A    between atoms: _107  and  _110
REMARK   44  A    between atoms: _110  and  _111
REMARK   45  A    between atoms: _114  and  _116
REMARK   46  A    between atoms: _116  and  _117
REMARK   47  A    between atoms: _116  and  _119
REMARK   48  A    between atoms: _122  and  _124
REMARK   49  A    between atoms: _124  and  _125
REMARK   50  A    between atoms: _124  and  _127
REMARK   51  A    between atoms: _127  and  _128
REMARK   52  A    between atoms: _130  and  _132
REMARK   53  A    between atoms: _132  and  _133
REMARK   54  A    between atoms: _132  and  _135
REMARK   55  A    between atoms: _138  and  _140
REMARK   56  A    between atoms: _140  and  _141
REMARK   57  A    between atoms: _140  and  _143
REMARK   58  A    between atoms: _143  and  _144
REMARK   59  A    between atoms: _144  and  _145
REMARK   60  A    between atoms: _150  and  _152
REMARK   61  A    between atoms: _152  and  _153
REMARK   62  A    between atoms: _152  and  _155
REMARK   63  A    between atoms: _155  and  _156
REMARK   64  A    between atoms: _156  and  _157
REMARK   65  A    between atoms: _160  and  _162
REMARK   66  A    between atoms: _162  and  _163
REMARK   67  A    between atoms: _162  and  _165
REMARK   68  A    between atoms: _165  and  _166
REMARK   69  A    between atoms: _169  and  _171
REMARK   70  A    between atoms: _171  and  _172
REMARK   71  A    between atoms: _175  and  _177
REMARK   72  A    between atoms: _177  and  _178
REMARK   73  A    between atoms: _177  and  _180
REMARK   74  A    between atoms: _180  and  _181
REMARK   75  A    between atoms: _184  and  _186
REMARK   76  A    between atoms: _186  and  _187
REMARK   77  A    between atoms: _186  and  _189
REMARK   78  A    between atoms: _189  and  _190
REMARK   79  A    between atoms: _190  and  _191
REMARK   80  A    between atoms: _194  and  _196
REMARK   81  A    between atoms: _196  and  _197
REMARK   82  A    between atoms: _196  and  _199
REMARK   83  A    between atoms: _202  and  _204
REMARK   84  A    between atoms: _204  and  _205
REMARK   85  A    between atoms: _204  and  _207
REMARK   86  A    between atoms: _207  and  _208
REMARK   87  A    between atoms: _208  and  _209
REMARK   88  A    between atoms: _211  and  _213
REMARK   89  A    between atoms: _213  and  _214
REMARK   90  A    between atoms: _213  and  _216
REMARK   91  A    between atoms: _216  and  _217
REMARK   92  A    between atoms: _220  and  _222
REMARK   93  A    between atoms: _222  and  _223
REMARK   94  A    between atoms: _222  and  _225
REMARK   95  A    between atoms: _225  and  _226
REMARK   96  A    between atoms: _229  and  _231
REMARK   97  A    between atoms: _231  and  _232
REMARK   98  A    between atoms: _231  and  _234
REMARK   99  A    between atoms: _234  and  _235
REMARK  100  A    between atoms: _235  and  _236
REMARK  101  A    between atoms: _239  and  _241
REMARK  102  A    between atoms: _241  and  _242
REMARK  103  A    between atoms: _241  and  _244
REMARK  104  A    between atoms: _244  and  _245
REMARK  105  A    between atoms: _248  and  _250
REMARK  106  A    between atoms: _250  and  _251
REMARK  107  A    between atoms: _250  and  _253
REMARK  108  A    between atoms: _253  and  _254
REMARK  109  A    between atoms: _256  and  _258
REMARK  110  A    between atoms: _258  and  _259
REMARK  111  A    between atoms: _258  and  _261
REMARK  112  A    between atoms: _261  and  _262
REMARK  113  A    between atoms: _262  and  _263
REMARK  114  A    between atoms: _263  and  _264
REMARK  115  A    between atoms: _273  and  _275
REMARK  116  A    between atoms: _275  and  _276
REMARK  117  A    between atoms: _275  and  _278
REMARK  118  A    between atoms: _278  and  _279
REMARK  119  A    between atoms: _279  and  _280
REMARK  120  A    between atoms: _280  and  _281
REMARK  121  A    between atoms: _290  and  _292
REMARK  122  A    between atoms: _292  and  _293
REMARK  123  A    between atoms: _292  and  _295
REMARK  124  A    between atoms: _295  and  _296
REMARK  125  A    between atoms: _299  and  _301
REMARK  126  A    between atoms: _301  and  _302
REMARK  127  A    between atoms: _301  and  _304
REMARK  128  A    between atoms: _304  and  _305
REMARK  129  A    between atoms: _308  and  _310
REMARK  130  A    between atoms: _310  and  _311
REMARK  131  A    between atoms: _310  and  _313
REMARK  132  A    between atoms: _313  and  _314
REMARK  133  A    between atoms: _320  and  _322
REMARK  134  A    between atoms: _322  and  _323
REMARK  135  A    between atoms: _322  and  _325
REMARK  136  A    between atoms: _325  and  _326
REMARK  137  A    between atoms: _329  and  _331
REMARK  138  A    between atoms: _331  and  _332
REMARK  139  A    between atoms: _331  and  _334
REMARK  140  A    between atoms: _334  and  _335
REMARK  141  A    between atoms: _335  and  _336
REMARK  142  A    between atoms: _336  and  _337
REMARK  143  A    between atoms: _337  and  _338
REMARK  144  A    between atoms: _342  and  _344
REMARK  145  A    between atoms: _344  and  _345
REMARK  146  A    between atoms: _344  and  _347
REMARK  147  A    between atoms: _347  and  _348
REMARK  148  A    between atoms: _351  and  _353
REMARK  149  A    between atoms: _353  and  _354
REMARK  150  A    between atoms: _353  and  _356
REMARK  151  A    between atoms: _356  and  _357
REMARK  152  A    between atoms: _363  and  _365
REMARK  153  A    between atoms: _365  and  _366
REMARK  154  A    between atoms: _365  and  _368
REMARK  155  A    between atoms: _368  and  _369
REMARK  156  A    between atoms: _374  and  _375
REMARK  157  A    between atoms: _377  and  _379
REMARK  158  A    between atoms: _379  and  _380
REMARK  159  A    between atoms: _379  and  _382
REMARK  160  A    between atoms: _382  and  _383
REMARK  161  A    between atoms: _388  and  _390
REMARK  162  A    between atoms: _390  and  _391
REMARK  163  A    between atoms: _390  and  _393
REMARK  164  A    between atoms: _393  and  _394
REMARK  165  A    between atoms: _394  and  _395
REMARK  166  A    between atoms: _395  and  _396
REMARK  167  A    between atoms: _405  and  _407
REMARK  168  A    between atoms: _407  and  _408
REMARK  169  A    between atoms: _407  and  _410
REMARK  170  A    between atoms: _410  and  _411
REMARK  171  A    between atoms: _414  and  _416
REMARK  172  A    between atoms: _416  and  _417
REMARK  173  A    between atoms: _416  and  _419
REMARK  174  A    between atoms: _419  and  _420
REMARK  175  A    between atoms: _426  and  _428
REMARK  176  A    between atoms: _428  and  _429
REMARK  177  A    between atoms: _432  and  _434
REMARK  178  A    between atoms: _434  and  _435
REMARK  179  A    between atoms: _438  and  _440
REMARK  180  A    between atoms: _440  and  _441
REMARK  181  A    between atoms: _443  and  _445
REMARK  182  A    between atoms: _445  and  _446
REMARK  183  A    between atoms: _445  and  _448
REMARK  184  A    between atoms: _448  and  _449
REMARK  185  A    between atoms: _452  and  _454
REMARK  186  A    between atoms: _454  and  _455
REMARK  187  A    between atoms: _454  and  _457
REMARK  188  A    between atoms: _457  and  _458
REMARK  189  A    between atoms: _458  and  _459
REMARK  190  A    between atoms: _464  and  _466
REMARK  191  A    between atoms: _466  and  _467
REMARK  192  A    between atoms: _466  and  _469
REMARK  193  A    between atoms: _472  and  _474
REMARK  194  A    between atoms: _474  and  _475
REMARK  195  A    between atoms: _474  and  _477
REMARK  196  A    between atoms: _477  and  _478
REMARK  197  A    between atoms: _478  and  _479
REMARK  198  A    between atoms: _482  and  _484
REMARK  199  A    between atoms: _484  and  _485
REMARK  200  A    between atoms: _484  and  _487
REMARK  201  A    between atoms: _487  and  _488
REMARK  202  A    between atoms: _494  and  _496
REMARK  203  A    between atoms: _496  and  _497
REMARK  204  A    between atoms: _496  and  _499
REMARK  205  A    between atoms: _499  and  _500
REMARK  206  A    between atoms: _503  and  _505
REMARK  207  A    between atoms: _505  and  _506
REMARK  208  A    between atoms: _505  and  _508
REMARK  209  A    between atoms: _508  and  _509
REMARK  210  A    between atoms: _515  and  _516
REMARK  211  A    between atoms: _521  and  _523
REMARK  212  A    between atoms: _523  and  _524
REMARK  213  A    between atoms: _523  and  _526
REMARK  214  A    between atoms: _526  and  _527
REMARK  215  A    between atoms: _530  and  _532
REMARK  216  A    between atoms: _532  and  _533
REMARK  217  A    between atoms: _532  and  _535
REMARK  218  A    between atoms: _535  and  _536
REMARK  219  A    between atoms: _542  and  _544
REMARK  220  A    between atoms: _544  and  _545
REMARK  221  A    between atoms: _544  and  _547
REMARK  222  A    between atoms: _547  and  _548
REMARK  223  A    between atoms: _548  and  _549
REMARK  224  A    between atoms: _552  and  _554
REMARK  225  A    between atoms: _554  and  _555
REMARK  226  A    between atoms: _554  and  _557
REMARK  227  A    between atoms: _557  and  _558
REMARK  228  A    between atoms: _560  and  _562
REMARK  229  A    between atoms: _562  and  _563
REMARK  230  A    between atoms: _562  and  _565
REMARK  231  A    between atoms: _565  and  _566
REMARK  232  A    between atoms: _569  and  _571
REMARK  233  A    between atoms: _571  and  _572
REMARK  234  A    between atoms: _571  and  _574
REMARK  235  A    between atoms: _577  and  _579
REMARK  236  A    between atoms: _579  and  _580
REMARK  237  A    between atoms: _579  and  _582
REMARK  238  A    between atoms: _582  and  _583
REMARK  239  A    between atoms: _588  and  _590
REMARK  240  A    between atoms: _590  and  _591
REMARK  241  A    between atoms: _590  and  _593
REMARK  242  A    between atoms: _593  and  _594
REMARK  243  A    between atoms: _596  and  _598
REMARK  244  A    between atoms: _598  and  _599
REMARK  245  A    between atoms: _598  and  _601
REMARK  246  A    between atoms: _601  and  _602
REMARK  247  A    between atoms: _602  and  _603
REMARK  248  A    between atoms: _606  and  _608
REMARK  249  A    between atoms: _608  and  _609
REMARK  250  A    between atoms: _608  and  _611
REMARK  251  A    between atoms: _611  and  _612
REMARK  252  A    between atoms: _612  and  _613
REMARK  253  A    between atoms: _618  and  _620
REMARK  254  A    between atoms: _620  and  _621
REMARK  255  A    between atoms: _620  and  _623
REMARK  256  A    between atoms: _626  and  _628
REMARK  257  A    between atoms: _628  and  _629
REMARK  258  A    between atoms: _628  and  _631
REMARK  259  A    between atoms: _631  and  _632
REMARK  260  A    between atoms: _638  and  _640
REMARK  261  A    between atoms: _640  and  _641
REMARK  262  A    between atoms: _640  and  _643
REMARK  263  A    between atoms: _643  and  _644
REMARK  264  A    between atoms: _647  and  _649
REMARK  265  A    between atoms: _649  and  _650
REMARK  266  A    between atoms: _649  and  _652
REMARK  267  A    between atoms: _652  and  _653
REMARK  268  A    between atoms: _653  and  _654
REMARK  269  A    between atoms: _654  and  _655
REMARK  270  A    between atoms: _655  and  _656
REMARK  271  A    between atoms: _660  and  _662
REMARK  272  A    between atoms: _662  and  _663
REMARK  273  A    between atoms: _662  and  _665
REMARK  274  A    between atoms: _665  and  _666
REMARK  275  A    between atoms: _666  and  _667
REMARK  276  A    between atoms: _667  and  _668
REMARK  277  A    between atoms: _668  and  _669
REMARK  278  A    between atoms: _673  and  _675
REMARK  279  A    between atoms: _675  and  _676
REMARK  280  A    between atoms: _675  and  _678
REMARK  281  A    between atoms: _678  and  _679
REMARK  282  A    between atoms: _683  and  _684
REMARK  283  A    between atoms: _689  and  _691
REMARK  284  A    between atoms: _691  and  _692
REMARK  285  A    between atoms: _691  and  _694
REMARK  286  A    between atoms: _694  and  _695
REMARK  287  A    between atoms: _698  and  _700
REMARK  288  A    between atoms: _700  and  _701
REMARK  289  A    between atoms: _700  and  _703
REMARK  290  A    between atoms: _703  and  _704
REMARK  291  A    between atoms: _714  and  _716
REMARK  292  A    between atoms: _716  and  _717
REMARK  293  A    between atoms: _716  and  _719
REMARK  294  A    between atoms: _719  and  _720
REMARK                            x       y       z     vdW  Elec       q    Type
REMARK                         _______ _______ _______ _____ _____    ______ ____
ROOT
ATOM      1  O   HOH     1      52.578  17.413  -8.607  0.00  0.00    +0.000 OA
ENDROOT
TORSDOF 0
