REMARK  Name = ../refined-set-2016/3ap4/3ap4_pocket.pdb
REMARK  113 active torsions:
REMARK  status: ('A' for Active; 'I' for Inactive)
REMARK    1  A    between atoms: _1  and  _3
REMARK    2  A    between atoms: _3  and  _4
REMARK    3  A    between atoms: _3  and  _6
REMARK    4  A    between atoms: _6  and  _7
REMARK    5  A    between atoms: _7  and  _8
REMARK    6  A    between atoms: _8  and  _9
REMARK    7  A    between atoms: _18  and  _20
REMARK    8  A    between atoms: _20  and  _21
REMARK    9  A    between atoms: _20  and  _23
REMARK   10  A    between atoms: _23  and  _24
REMARK   11  A    between atoms: _30  and  _32
REMARK   12  A    between atoms: _32  and  _33
REMARK   13  A    between atoms: _32  and  _35
REMARK   14  A    between atoms: _35  and  _36
REMARK   15  A    between atoms: _36  and  _37
REMARK   16  A    between atoms: _42  and  _44
REMARK   17  A    between atoms: _44  and  _45
REMARK   18  A    between atoms: _44  and  _47
REMARK   19  A    between atoms: _47  and  _48
REMARK   20  A    between atoms: _51  and  _53
REMARK   21  A    between atoms: _53  and  _54
REMARK   22  A    between atoms: _53  and  _56
REMARK   23  A    between atoms: _56  and  _57
REMARK   24  A    between atoms: _57  and  _58
REMARK   25  A    between atoms: _58  and  _59
REMARK   26  A    between atoms: _68  and  _70
REMARK   27  A    between atoms: _70  and  _71
REMARK   28  A    between atoms: _70  and  _73
REMARK   29  A    between atoms: _73  and  _74
REMARK   30  A    between atoms: _79  and  _81
REMARK   31  A    between atoms: _81  and  _82
REMARK   32  A    between atoms: _81  and  _84
REMARK   33  A    between atoms: _84  and  _85
REMARK   34  A    between atoms: _91  and  _93
REMARK   35  A    between atoms: _93  and  _94
REMARK   36  A    between atoms: _93  and  _96
REMARK   37  A    between atoms: _96  and  _97
REMARK   38  A    between atoms: _103  and  _104
REMARK   39  A    between atoms: _109  and  _111
REMARK   40  A    between atoms: _111  and  _112
REMARK   41  A    between atoms: _111  and  _114
REMARK   42  A    between atoms: _114  and  _115
REMARK   43  A    between atoms: _115  and  _116
REMARK   44  A    between atoms: _116  and  _117
REMARK   45  A    between atoms: _126  and  _128
REMARK   46  A    between atoms: _128  and  _129
REMARK   47  A    between atoms: _128  and  _131
REMARK   48  A    between atoms: _131  and  _132
REMARK   49  A    between atoms: _132  and  _133
REMARK   50  A    between atoms: _133  and  _134
REMARK   51  A    between atoms: _134  and  _135
REMARK   52  A    between atoms: _139  and  _141
REMARK   53  A    between atoms: _141  and  _142
REMARK   54  A    between atoms: _141  and  _144
REMARK   55  A    between atoms: _147  and  _149
REMARK   56  A    between atoms: _149  and  _150
REMARK   57  A    between atoms: _149  and  _152
REMARK   58  A    between atoms: _154  and  _156
REMARK   59  A    between atoms: _156  and  _157
REMARK   60  A    between atoms: _156  and  _159
REMARK   61  A    between atoms: _159  and  _160
REMARK   62  A    between atoms: _165  and  _167
REMARK   63  A    between atoms: _167  and  _168
REMARK   64  A    between atoms: _167  and  _170
REMARK   65  A    between atoms: _170  and  _171
REMARK   66  A    between atoms: _174  and  _176
REMARK   67  A    between atoms: _176  and  _177
REMARK   68  A    between atoms: _176  and  _179
REMARK   69  A    between atoms: _179  and  _180
REMARK   70  A    between atoms: _183  and  _185
REMARK   71  A    between atoms: _185  and  _186
REMARK   72  A    between atoms: _185  and  _188
REMARK   73  A    between atoms: _188  and  _189
REMARK   74  A    between atoms: _189  and  _190
REMARK   75  A    between atoms: _190  and  _191
REMARK   76  A    between atoms: _191  and  _192
REMARK   77  A    between atoms: _196  and  _198
REMARK   78  A    between atoms: _198  and  _199
REMARK   79  A    between atoms: _198  and  _201
REMARK   80  A    between atoms: _201  and  _202
REMARK   81  A    between atoms: _212  and  _214
REMARK   82  A    between atoms: _214  and  _215
REMARK   83  A    between atoms: _217  and  _219
REMARK   84  A    between atoms: _219  and  _220
REMARK   85  A    between atoms: _219  and  _222
REMARK   86  A    between atoms: _222  and  _223
REMARK   87  A    between atoms: _223  and  _224
REMARK   88  A    between atoms: _224  and  _225
REMARK   89  A    between atoms: _234  and  _236
REMARK   90  A    between atoms: _236  and  _237
REMARK   91  A    between atoms: _236  and  _239
REMARK   92  A    between atoms: _239  and  _240
REMARK   93  A    between atoms: _240  and  _241
REMARK   94  A    between atoms: _244  and  _246
REMARK   95  A    between atoms: _246  and  _247
REMARK   96  A    between atoms: _246  and  _249
REMARK   97  A    between atoms: _249  and  _250
REMARK   98  A    between atoms: _250  and  _251
REMARK   99  A    between atoms: _254  and  _256
REMARK  100  A    between atoms: _256  and  _257
REMARK  101  A    between atoms: _256  and  _259
REMARK  102  A    between atoms: _259  and  _260
REMARK  103  A    between atoms: _263  and  _265
REMARK  104  A    between atoms: _265  and  _266
REMARK  105  A    between atoms: _265  and  _268
REMARK  106  A    between atoms: _268  and  _269
REMARK  107  A    between atoms: _274  and  _275
REMARK  108  A    between atoms: _277  and  _279
REMARK  109  A    between atoms: _279  and  _280
REMARK  110  A    between atoms: _279  and  _282
REMARK  111  A    between atoms: _282  and  _283
REMARK  112  A    between atoms: _283  and  _284
REMARK  113  A    between atoms: _284  and  _285
REMARK                            x       y       z     vdW  Elec       q    Type
REMARK                         _______ _______ _______ _____ _____    ______ ____
ROOT
ATOM      1  CA  PHE A   2      20.671  40.978  21.551  0.00  0.00    +0.153 C 
ENDROOT
BRANCH   1   4
ATOM      2  C   ARG A   1      22.994  41.103  22.245  0.00  0.00    +0.238 C 
ATOM      3  O   ARG A   1      22.716  41.642  23.312  0.00  0.00    -0.274 OA
ATOM      4  N   PHE A   2      22.100  40.871  21.294  0.00  0.00    -0.297 N 
ATOM      5  H   PHE A   2      22.427  40.607  20.343  0.00  0.00    +0.150 HD
BRANCH   2   6
ATOM      6  CA  ARG A   1      24.407  40.634  21.951  0.00  0.00    +0.145 C 
BRANCH   6   7
ATOM      7  N   ARG A   1      25.402  41.328  22.778  0.00  0.00    -0.238 NA
ATOM      8  H   ARG A   1      25.077  41.908  23.577  0.00  0.00    +0.142 HD
ENDBRANCH   6   7
BRANCH   6   9
ATOM      9  CB  ARG A   1      24.465  39.118  22.185  0.00  0.00    +0.030 C 
BRANCH   9  10
ATOM     10  CG  ARG A   1      24.326  38.709  23.660  0.00  0.00    +0.045 C 
BRANCH  10  11
ATOM     11  CD  ARG A   1      24.209  37.197  23.813  0.00  0.00    +0.174 C 
BRANCH  11  12
ATOM     12  NE  ARG A   1      22.858  36.716  23.497  0.00  0.00    -0.265 N 
ATOM     13  HE  ARG A   1      22.092  37.418  23.452  0.00  0.00    +0.259 HD
ATOM     14  CZ  ARG A   1      22.546  35.443  23.264  0.00  0.00    +0.342 C 
ATOM     15  NH2 ARG A   1      23.479  34.498  23.302  0.00  0.00    -0.292 N 
ATOM     16 HH21 ARG A   1      24.465  34.749  23.516  0.00  0.00    +0.255 HD
ATOM     17 HH22 ARG A   1      23.223  33.507  23.118  0.00  0.00    +0.255 HD
ATOM     18  NH1 ARG A   1      21.292  35.107  22.984  0.00  0.00    -0.292 N 
ATOM     19 HH11 ARG A   1      20.554  35.838  22.947  0.00  0.00    +0.255 HD
ATOM     20 HH12 ARG A   1      21.048  34.112  22.802  0.00  0.00    +0.255 HD
ENDBRANCH  11  12
ENDBRANCH  10  11
ENDBRANCH   9  10
ENDBRANCH   6   9
ENDBRANCH   2   6
ENDBRANCH   1   4
BRANCH   1  21
ATOM     21  C   PHE A   2      19.956  39.910  20.738  0.00  0.00    +0.241 C 
ATOM     22  N   GLN A   3      18.642  39.785  20.912  0.00  0.00    -0.298 N 
ATOM     23  H   GLN A   3      18.150  40.416  21.577  0.00  0.00    +0.150 HD
ATOM     24  O   PHE A   2      20.599  39.192  19.980  0.00  0.00    -0.273 OA
BRANCH  22  25
ATOM     25  CA  GLN A   3      17.882  38.775  20.182  0.00  0.00    +0.137 C 
BRANCH  25  26
ATOM     26  C   GLN A   3      16.423  39.155  19.880  0.00  0.00    +0.227 C 
ATOM     27  O   GLN A   3      15.737  39.781  20.697  0.00  0.00    -0.286 OA
ENDBRANCH  25  26
BRANCH  25  28
ATOM     28  CB  GLN A   3      17.948  37.434  20.923  0.00  0.00    +0.037 C 
BRANCH  28  29
ATOM     29  CG  GLN A   3      17.309  37.432  22.306  0.00  0.00    +0.087 C 
BRANCH  29  30
ATOM     30  CD  GLN A   3      17.759  36.257  23.149  0.00  0.00    +0.219 C 
ATOM     31  OE1 GLN A   3      18.883  36.243  23.667  0.00  0.00    -0.275 OA
ATOM     32  NE2 GLN A   3      16.887  35.256  23.294  0.00  0.00    -0.329 N 
ATOM     33 HE21 GLN A   3      17.142  34.422  23.861  0.00  0.00    +0.145 HD
ATOM     34 HE22 GLN A   3      15.953  35.310  22.840  0.00  0.00    +0.145 HD
ENDBRANCH  29  30
ENDBRANCH  28  29
ENDBRANCH  25  28
ENDBRANCH  22  25
ENDBRANCH   1  21
BRANCH   1  35
ATOM     35  CB  PHE A   2      20.159  42.398  21.265  0.00  0.00    +0.055 C 
BRANCH  35  36
ATOM     36  CG  PHE A   2      20.005  42.740  19.802  0.00  0.00    -0.020 A 
ATOM     37  CD2 PHE A   2      18.776  42.598  19.170  0.00  0.00    -0.004 A 
ATOM     38  CE2 PHE A   2      18.622  42.938  17.819  0.00  0.00    -0.000 A 
ATOM     39  CZ  PHE A   2      19.697  43.449  17.102  0.00  0.00    -0.000 A 
ATOM     40  CE1 PHE A   2      20.917  43.617  17.732  0.00  0.00    -0.000 A 
ATOM     41  CD1 PHE A   2      21.062  43.265  19.081  0.00  0.00    -0.004 A 
ENDBRANCH  35  36
ENDBRANCH   1  35
TORSDOF 15
REMARK  Name = ../refined-set-2016/3ap4/3ap4_pocket.pdb
REMARK  113 active torsions:
REMARK  status: ('A' for Active; 'I' for Inactive)
REMARK    1  A    between atoms: _1  and  _3
REMARK    2  A    between atoms: _3  and  _4
REMARK    3  A    between atoms: _3  and  _6
REMARK    4  A    between atoms: _6  and  _7
REMARK    5  A    between atoms: _7  and  _8
REMARK    6  A    between atoms: _8  and  _9
REMARK    7  A    between atoms: _18  and  _20
REMARK    8  A    between atoms: _20  and  _21
REMARK    9  A    between atoms: _20  and  _23
REMARK   10  A    between atoms: _23  and  _24
REMARK   11  A    between atoms: _30  and  _32
REMARK   12  A    between atoms: _32  and  _33
REMARK   13  A    between atoms: _32  and  _35
REMARK   14  A    between atoms: _35  and  _36
REMARK   15  A    between atoms: _36  and  _37
REMARK   16  A    between atoms: _42  and  _44
REMARK   17  A    between atoms: _44  and  _45
REMARK   18  A    between atoms: _44  and  _47
REMARK   19  A    between atoms: _47  and  _48
REMARK   20  A    between atoms: _51  and  _53
REMARK   21  A    between atoms: _53  and  _54
REMARK   22  A    between atoms: _53  and  _56
REMARK   23  A    between atoms: _56  and  _57
REMARK   24  A    between atoms: _57  and  _58
REMARK   25  A    between atoms: _58  and  _59
REMARK   26  A    between atoms: _68  and  _70
REMARK   27  A    between atoms: _70  and  _71
REMARK   28  A    between atoms: _70  and  _73
REMARK   29  A    between atoms: _73  and  _74
REMARK   30  A    between atoms: _79  and  _81
REMARK   31  A    between atoms: _81  and  _82
REMARK   32  A    between atoms: _81  and  _84
REMARK   33  A    between atoms: _84  and  _85
REMARK   34  A    between atoms: _91  and  _93
REMARK   35  A    between atoms: _93  and  _94
REMARK   36  A    between atoms: _93  and  _96
REMARK   37  A    between atoms: _96  and  _97
REMARK   38  A    between atoms: _103  and  _104
REMARK   39  A    between atoms: _109  and  _111
REMARK   40  A    between atoms: _111  and  _112
REMARK   41  A    between atoms: _111  and  _114
REMARK   42  A    between atoms: _114  and  _115
REMARK   43  A    between atoms: _115  and  _116
REMARK   44  A    between atoms: _116  and  _117
REMARK   45  A    between atoms: _126  and  _128
REMARK   46  A    between atoms: _128  and  _129
REMARK   47  A    between atoms: _128  and  _131
REMARK   48  A    between atoms: _131  and  _132
REMARK   49  A    between atoms: _132  and  _133
REMARK   50  A    between atoms: _133  and  _134
REMARK   51  A    between atoms: _134  and  _135
REMARK   52  A    between atoms: _139  and  _141
REMARK   53  A    between atoms: _141  and  _142
REMARK   54  A    between atoms: _141  and  _144
REMARK   55  A    between atoms: _147  and  _149
REMARK   56  A    between atoms: _149  and  _150
REMARK   57  A    between atoms: _149  and  _152
REMARK   58  A    between atoms: _154  and  _156
REMARK   59  A    between atoms: _156  and  _157
REMARK   60  A    between atoms: _156  and  _159
REMARK   61  A    between atoms: _159  and  _160
REMARK   62  A    between atoms: _165  and  _167
REMARK   63  A    between atoms: _167  and  _168
REMARK   64  A    between atoms: _167  and  _170
REMARK   65  A    between atoms: _170  and  _171
REMARK   66  A    between atoms: _174  and  _176
REMARK   67  A    between atoms: _176  and  _177
REMARK   68  A    between atoms: _176  and  _179
REMARK   69  A    between atoms: _179  and  _180
REMARK   70  A    between atoms: _183  and  _185
REMARK   71  A    between atoms: _185  and  _186
REMARK   72  A    between atoms: _185  and  _188
REMARK   73  A    between atoms: _188  and  _189
REMARK   74  A    between atoms: _189  and  _190
REMARK   75  A    between atoms: _190  and  _191
REMARK   76  A    between atoms: _191  and  _192
REMARK   77  A    between atoms: _196  and  _198
REMARK   78  A    between atoms: _198  and  _199
REMARK   79  A    between atoms: _198  and  _201
REMARK   80  A    between atoms: _201  and  _202
REMARK   81  A    between atoms: _212  and  _214
REMARK   82  A    between atoms: _214  and  _215
REMARK   83  A    between atoms: _217  and  _219
REMARK   84  A    between atoms: _219  and  _220
REMARK   85  A    between atoms: _219  and  _222
REMARK   86  A    between atoms: _222  and  _223
REMARK   87  A    between atoms: _223  and  _224
REMARK   88  A    between atoms: _224  and  _225
REMARK   89  A    between atoms: _234  and  _236
REMARK   90  A    between atoms: _236  and  _237
REMARK   91  A    between atoms: _236  and  _239
REMARK   92  A    between atoms: _239  and  _240
REMARK   93  A    between atoms: _240  and  _241
REMARK   94  A    between atoms: _244  and  _246
REMARK   95  A    between atoms: _246  and  _247
REMARK   96  A    between atoms: _246  and  _249
REMARK   97  A    between atoms: _249  and  _250
REMARK   98  A    between atoms: _250  and  _251
REMARK   99  A    between atoms: _254  and  _256
REMARK  100  A    between atoms: _256  and  _257
REMARK  101  A    between atoms: _256  and  _259
REMARK  102  A    between atoms: _259  and  _260
REMARK  103  A    between atoms: _263  and  _265
REMARK  104  A    between atoms: _265  and  _266
REMARK  105  A    between atoms: _265  and  _268
REMARK  106  A    between atoms: _268  and  _269
REMARK  107  A    between atoms: _274  and  _275
REMARK  108  A    between atoms: _277  and  _279
REMARK  109  A    between atoms: _279  and  _280
REMARK  110  A    between atoms: _279  and  _282
REMARK  111  A    between atoms: _282  and  _283
REMARK  112  A    between atoms: _283  and  _284
REMARK  113  A    between atoms: _284  and  _285
REMARK                            x       y       z     vdW  Elec       q    Type
REMARK                         _______ _______ _______ _____ _____    ______ ____
ROOT
ATOM      1  CA  ASP A   1      12.627  35.643  19.127  0.00  0.00    +0.144 C 
ENDROOT
BRANCH   1   2
ATOM      2  N   ASP A   1      13.144  37.017  19.053  0.00  0.00    -0.239 NA
ATOM      3  H   ASP A   1      12.750  37.737  19.692  0.00  0.00    +0.142 HD
ENDBRANCH   1   2
BRANCH   1   4
ATOM      4  C   ASP A   1      11.152  35.559  18.701  0.00  0.00    +0.225 C 
ATOM      5  O   ASP A   1      10.292  36.216  19.285  0.00  0.00    -0.287 OA
ENDBRANCH   1   4
BRANCH   1   6
ATOM      6  CB  ASP A   1      12.754  35.080  20.557  0.00  0.00    +0.139 C 
BRANCH   6   7
ATOM      7  CG  ASP A   1      14.202  34.937  21.033  0.00  0.00    +0.367 C 
ATOM      8  OD2 ASP A   1      14.409  34.974  22.272  0.00  0.00    -0.246 OA
ATOM      9  OD1 ASP A   1      15.122  34.783  20.197  0.00  0.00    -0.246 OA
ENDBRANCH   6   7
ENDBRANCH   1   6
TORSDOF 4
REMARK  Name = ../refined-set-2016/3ap4/3ap4_pocket.pdb
REMARK  113 active torsions:
REMARK  status: ('A' for Active; 'I' for Inactive)
REMARK    1  A    between atoms: _1  and  _3
REMARK    2  A    between atoms: _3  and  _4
REMARK    3  A    between atoms: _3  and  _6
REMARK    4  A    between atoms: _6  and  _7
REMARK    5  A    between atoms: _7  and  _8
REMARK    6  A    between atoms: _8  and  _9
REMARK    7  A    between atoms: _18  and  _20
REMARK    8  A    between atoms: _20  and  _21
REMARK    9  A    between atoms: _20  and  _23
REMARK   10  A    between atoms: _23  and  _24
REMARK   11  A    between atoms: _30  and  _32
REMARK   12  A    between atoms: _32  and  _33
REMARK   13  A    between atoms: _32  and  _35
REMARK   14  A    between atoms: _35  and  _36
REMARK   15  A    between atoms: _36  and  _37
REMARK   16  A    between atoms: _42  and  _44
REMARK   17  A    between atoms: _44  and  _45
REMARK   18  A    between atoms: _44  and  _47
REMARK   19  A    between atoms: _47  and  _48
REMARK   20  A    between atoms: _51  and  _53
REMARK   21  A    between atoms: _53  and  _54
REMARK   22  A    between atoms: _53  and  _56
REMARK   23  A    between atoms: _56  and  _57
REMARK   24  A    between atoms: _57  and  _58
REMARK   25  A    between atoms: _58  and  _59
REMARK   26  A    between atoms: _68  and  _70
REMARK   27  A    between atoms: _70  and  _71
REMARK   28  A    between atoms: _70  and  _73
REMARK   29  A    between atoms: _73  and  _74
REMARK   30  A    between atoms: _79  and  _81
REMARK   31  A    between atoms: _81  and  _82
REMARK   32  A    between atoms: _81  and  _84
REMARK   33  A    between atoms: _84  and  _85
REMARK   34  A    between atoms: _91  and  _93
REMARK   35  A    between atoms: _93  and  _94
REMARK   36  A    between atoms: _93  and  _96
REMARK   37  A    between atoms: _96  and  _97
REMARK   38  A    between atoms: _103  and  _104
REMARK   39  A    between atoms: _109  and  _111
REMARK   40  A    between atoms: _111  and  _112
REMARK   41  A    between atoms: _111  and  _114
REMARK   42  A    between atoms: _114  and  _115
REMARK   43  A    between atoms: _115  and  _116
REMARK   44  A    between atoms: _116  and  _117
REMARK   45  A    between atoms: _126  and  _128
REMARK   46  A    between atoms: _128  and  _129
REMARK   47  A    between atoms: _128  and  _131
REMARK   48  A    between atoms: _131  and  _132
REMARK   49  A    between atoms: _132  and  _133
REMARK   50  A    between atoms: _133  and  _134
REMARK   51  A    between atoms: _134  and  _135
REMARK   52  A    between atoms: _139  and  _141
REMARK   53  A    between atoms: _141  and  _142
REMARK   54  A    between atoms: _141  and  _144
REMARK   55  A    between atoms: _147  and  _149
REMARK   56  A    between atoms: _149  and  _150
REMARK   57  A    between atoms: _149  and  _152
REMARK   58  A    between atoms: _154  and  _156
REMARK   59  A    between atoms: _156  and  _157
REMARK   60  A    between atoms: _156  and  _159
REMARK   61  A    between atoms: _159  and  _160
REMARK   62  A    between atoms: _165  and  _167
REMARK   63  A    between atoms: _167  and  _168
REMARK   64  A    between atoms: _167  and  _170
REMARK   65  A    between atoms: _170  and  _171
REMARK   66  A    between atoms: _174  and  _176
REMARK   67  A    between atoms: _176  and  _177
REMARK   68  A    between atoms: _176  and  _179
REMARK   69  A    between atoms: _179  and  _180
REMARK   70  A    between atoms: _183  and  _185
REMARK   71  A    between atoms: _185  and  _186
REMARK   72  A    between atoms: _185  and  _188
REMARK   73  A    between atoms: _188  and  _189
REMARK   74  A    between atoms: _189  and  _190
REMARK   75  A    between atoms: _190  and  _191
REMARK   76  A    between atoms: _191  and  _192
REMARK   77  A    between atoms: _196  and  _198
REMARK   78  A    between atoms: _198  and  _199
REMARK   79  A    between atoms: _198  and  _201
REMARK   80  A    between atoms: _201  and  _202
REMARK   81  A    between atoms: _212  and  _214
REMARK   82  A    between atoms: _214  and  _215
REMARK   83  A    between atoms: _217  and  _219
REMARK   84  A    between atoms: _219  and  _220
REMARK   85  A    between atoms: _219  and  _222
REMARK   86  A    between atoms: _222  and  _223
REMARK   87  A    between atoms: _223  and  _224
REMARK   88  A    between atoms: _224  and  _225
REMARK   89  A    between atoms: _234  and  _236
REMARK   90  A    between atoms: _236  and  _237
REMARK   91  A    between atoms: _236  and  _239
REMARK   92  A    between atoms: _239  and  _240
REMARK   93  A    between atoms: _240  and  _241
REMARK   94  A    between atoms: _244  and  _246
REMARK   95  A    between atoms: _246  and  _247
REMARK   96  A    between atoms: _246  and  _249
REMARK   97  A    between atoms: _249  and  _250
REMARK   98  A    between atoms: _250  and  _251
REMARK   99  A    between atoms: _254  and  _256
REMARK  100  A    between atoms: _256  and  _257
REMARK  101  A    between atoms: _256  and  _259
REMARK  102  A    between atoms: _259  and  _260
REMARK  103  A    between atoms: _263  and  _265
REMARK  104  A    between atoms: _265  and  _266
REMARK  105  A    between atoms: _265  and  _268
REMARK  106  A    between atoms: _268  and  _269
REMARK  107  A    between atoms: _274  and  _275
REMARK  108  A    between atoms: _277  and  _279
REMARK  109  A    between atoms: _279  and  _280
REMARK  110  A    between atoms: _279  and  _282
REMARK  111  A    between atoms: _282  and  _283
REMARK  112  A    between atoms: _283  and  _284
REMARK  113  A    between atoms: _284  and  _285
REMARK                            x       y       z     vdW  Elec       q    Type
REMARK                         _______ _______ _______ _____ _____    ______ ____
ROOT
ATOM      1  NE  ARG A   1      13.986  30.790  26.390  0.00  0.00    -0.265 N 
ATOM      2  HE  ARG A   1      13.188  31.282  25.940  0.00  0.00    +0.259 HD
ATOM      3  CZ  ARG A   1      15.206  31.048  25.924  0.00  0.00    +0.342 C 
ATOM      4  NH2 ARG A   1      16.277  30.469  26.460  0.00  0.00    -0.292 N 
ATOM      5 HH21 ARG A   1      16.167  29.805  27.253  0.00  0.00    +0.255 HD
ATOM      6 HH22 ARG A   1      17.224  30.680  26.086  0.00  0.00    +0.255 HD
ATOM      7  NH1 ARG A   1      15.355  31.899  24.910  0.00  0.00    -0.292 N 
ATOM      8 HH11 ARG A   1      16.305  32.106  24.540  0.00  0.00    +0.255 HD
ATOM      9 HH12 ARG A   1      14.522  32.356  24.488  0.00  0.00    +0.255 HD
ENDROOT
BRANCH   1  10
ATOM     10  CD  ARG A   1      13.679  29.872  27.482  0.00  0.00    +0.174 C 
BRANCH  10  11
ATOM     11  CG  ARG A   1      12.182  29.659  27.569  0.00  0.00    +0.045 C 
BRANCH  11  12
ATOM     12  CB  ARG A   1      11.819  28.438  28.377  0.00  0.00    +0.029 C 
BRANCH  12  13
ATOM     13  CA  ARG A   1      10.313  28.305  28.605  0.00  0.00    +0.133 C 
BRANCH  13  14
ATOM     14  N   ARG A   1      10.032  27.234  29.546  0.00  0.00    -0.239 NA
ATOM     15  H   ARG A   1      10.776  26.543  29.771  0.00  0.00    +0.142 HD
ENDBRANCH  13  14
BRANCH  13  16
ATOM     16  C   ARG A   1       9.615  28.088  27.267  0.00  0.00    +0.224 C 
ATOM     17  O   ARG A   1       9.798  27.054  26.627  0.00  0.00    -0.287 OA
ENDBRANCH  13  16
ENDBRANCH  12  13
ENDBRANCH  11  12
ENDBRANCH  10  11
ENDBRANCH   1  10
TORSDOF 6
REMARK  Name = ../refined-set-2016/3ap4/3ap4_pocket.pdb
REMARK  113 active torsions:
REMARK  status: ('A' for Active; 'I' for Inactive)
REMARK    1  A    between atoms: _1  and  _3
REMARK    2  A    between atoms: _3  and  _4
REMARK    3  A    between atoms: _3  and  _6
REMARK    4  A    between atoms: _6  and  _7
REMARK    5  A    between atoms: _7  and  _8
REMARK    6  A    between atoms: _8  and  _9
REMARK    7  A    between atoms: _18  and  _20
REMARK    8  A    between atoms: _20  and  _21
REMARK    9  A    between atoms: _20  and  _23
REMARK   10  A    between atoms: _23  and  _24
REMARK   11  A    between atoms: _30  and  _32
REMARK   12  A    between atoms: _32  and  _33
REMARK   13  A    between atoms: _32  and  _35
REMARK   14  A    between atoms: _35  and  _36
REMARK   15  A    between atoms: _36  and  _37
REMARK   16  A    between atoms: _42  and  _44
REMARK   17  A    between atoms: _44  and  _45
REMARK   18  A    between atoms: _44  and  _47
REMARK   19  A    between atoms: _47  and  _48
REMARK   20  A    between atoms: _51  and  _53
REMARK   21  A    between atoms: _53  and  _54
REMARK   22  A    between atoms: _53  and  _56
REMARK   23  A    between atoms: _56  and  _57
REMARK   24  A    between atoms: _57  and  _58
REMARK   25  A    between atoms: _58  and  _59
REMARK   26  A    between atoms: _68  and  _70
REMARK   27  A    between atoms: _70  and  _71
REMARK   28  A    between atoms: _70  and  _73
REMARK   29  A    between atoms: _73  and  _74
REMARK   30  A    between atoms: _79  and  _81
REMARK   31  A    between atoms: _81  and  _82
REMARK   32  A    between atoms: _81  and  _84
REMARK   33  A    between atoms: _84  and  _85
REMARK   34  A    between atoms: _91  and  _93
REMARK   35  A    between atoms: _93  and  _94
REMARK   36  A    between atoms: _93  and  _96
REMARK   37  A    between atoms: _96  and  _97
REMARK   38  A    between atoms: _103  and  _104
REMARK   39  A    between atoms: _109  and  _111
REMARK   40  A    between atoms: _111  and  _112
REMARK   41  A    between atoms: _111  and  _114
REMARK   42  A    between atoms: _114  and  _115
REMARK   43  A    between atoms: _115  and  _116
REMARK   44  A    between atoms: _116  and  _117
REMARK   45  A    between atoms: _126  and  _128
REMARK   46  A    between atoms: _128  and  _129
REMARK   47  A    between atoms: _128  and  _131
REMARK   48  A    between atoms: _131  and  _132
REMARK   49  A    between atoms: _132  and  _133
REMARK   50  A    between atoms: _133  and  _134
REMARK   51  A    between atoms: _134  and  _135
REMARK   52  A    between atoms: _139  and  _141
REMARK   53  A    between atoms: _141  and  _142
REMARK   54  A    between atoms: _141  and  _144
REMARK   55  A    between atoms: _147  and  _149
REMARK   56  A    between atoms: _149  and  _150
REMARK   57  A    between atoms: _149  and  _152
REMARK   58  A    between atoms: _154  and  _156
REMARK   59  A    between atoms: _156  and  _157
REMARK   60  A    between atoms: _156  and  _159
REMARK   61  A    between atoms: _159  and  _160
REMARK   62  A    between atoms: _165  and  _167
REMARK   63  A    between atoms: _167  and  _168
REMARK   64  A    between atoms: _167  and  _170
REMARK   65  A    between atoms: _170  and  _171
REMARK   66  A    between atoms: _174  and  _176
REMARK   67  A    between atoms: _176  and  _177
REMARK   68  A    between atoms: _176  and  _179
REMARK   69  A    between atoms: _179  and  _180
REMARK   70  A    between atoms: _183  and  _185
REMARK   71  A    between atoms: _185  and  _186
REMARK   72  A    between atoms: _185  and  _188
REMARK   73  A    between atoms: _188  and  _189
REMARK   74  A    between atoms: _189  and  _190
REMARK   75  A    between atoms: _190  and  _191
REMARK   76  A    between atoms: _191  and  _192
REMARK   77  A    between atoms: _196  and  _198
REMARK   78  A    between atoms: _198  and  _199
REMARK   79  A    between atoms: _198  and  _201
REMARK   80  A    between atoms: _201  and  _202
REMARK   81  A    between atoms: _212  and  _214
REMARK   82  A    between atoms: _214  and  _215
REMARK   83  A    between atoms: _217  and  _219
REMARK   84  A    between atoms: _219  and  _220
REMARK   85  A    between atoms: _219  and  _222
REMARK   86  A    between atoms: _222  and  _223
REMARK   87  A    between atoms: _223  and  _224
REMARK   88  A    between atoms: _224  and  _225
REMARK   89  A    between atoms: _234  and  _236
REMARK   90  A    between atoms: _236  and  _237
REMARK   91  A    between atoms: _236  and  _239
REMARK   92  A    between atoms: _239  and  _240
REMARK   93  A    between atoms: _240  and  _241
REMARK   94  A    between atoms: _244  and  _246
REMARK   95  A    between atoms: _246  and  _247
REMARK   96  A    between atoms: _246  and  _249
REMARK   97  A    between atoms: _249  and  _250
REMARK   98  A    between atoms: _250  and  _251
REMARK   99  A    between atoms: _254  and  _256
REMARK  100  A    between atoms: _256  and  _257
REMARK  101  A    between atoms: _256  and  _259
REMARK  102  A    between atoms: _259  and  _260
REMARK  103  A    between atoms: _263  and  _265
REMARK  104  A    between atoms: _265  and  _266
REMARK  105  A    between atoms: _265  and  _268
REMARK  106  A    between atoms: _268  and  _269
REMARK  107  A    between atoms: _274  and  _275
REMARK  108  A    between atoms: _277  and  _279
REMARK  109  A    between atoms: _279  and  _280
REMARK  110  A    between atoms: _279  and  _282
REMARK  111  A    between atoms: _282  and  _283
REMARK  112  A    between atoms: _283  and  _284
REMARK  113  A    between atoms: _284  and  _285
REMARK                            x       y       z     vdW  Elec       q    Type
REMARK                         _______ _______ _______ _____ _____    ______ ____
ROOT
ATOM      1  CA  ASN A   3      20.674  36.593  17.678  0.00  0.00    +0.158 C 
ENDROOT
BRANCH   1   2
ATOM      2  C   ASN A   3      21.989  37.194  17.191  0.00  0.00    +0.244 C 
ATOM      3  O   ASN A   3      22.974  36.484  17.068  0.00  0.00    -0.273 OA
ATOM      4  N   PRO A   4      22.005  38.507  16.896  0.00  0.00    -0.272 N 
ATOM      5  CD  PRO A   4      20.853  39.377  16.615  0.00  0.00    +0.094 C 
ATOM      6  CG  PRO A   4      21.448  40.456  15.748  0.00  0.00    +0.024 C 
ATOM      7  CB  PRO A   4      22.834  40.608  16.240  0.00  0.00    +0.031 C 
ATOM      8  CA  PRO A   4      23.273  39.182  16.585  0.00  0.00    +0.152 C 
BRANCH   8   9
ATOM      9  C   PRO A   4      24.267  39.178  17.749  0.00  0.00    +0.241 C 
ATOM     10  O   PRO A   4      23.882  39.368  18.900  0.00  0.00    -0.273 OA
ATOM     11  N   ARG A   5      25.532  38.931  17.439  0.00  0.00    -0.298 N 
ATOM     12  H   ARG A   5      25.784  38.785  16.441  0.00  0.00    +0.150 HD
BRANCH  11  13
ATOM     13  CA  ARG A   5      26.588  38.857  18.454  0.00  0.00    +0.137 C 
BRANCH  13  14
ATOM     14  C   ARG A   5      27.769  39.697  18.009  0.00  0.00    +0.227 C 
ATOM     15  O   ARG A   5      28.184  39.613  16.855  0.00  0.00    -0.286 OA
ENDBRANCH  13  14
BRANCH  13  16
ATOM     16  CB  ARG A   5      27.030  37.409  18.680  0.00  0.00    +0.031 C 
BRANCH  16  17
ATOM     17  CG  ARG A   5      26.128  36.633  19.644  0.00  0.00    +0.045 C 
BRANCH  17  18
ATOM     18  CD  ARG A   5      26.473  35.148  19.664  0.00  0.00    +0.174 C 
BRANCH  18  19
ATOM     19  NE  ARG A   5      25.362  34.324  20.122  0.00  0.00    -0.265 N 
ATOM     20  CZ  ARG A   5      25.454  33.031  20.424  0.00  0.00    +0.342 C 
ATOM     21  NH2 ARG A   5      24.378  32.360  20.846  0.00  0.00    -0.292 N 
ATOM     22 HH21 ARG A   5      24.454  31.350  21.081  0.00  0.00    +0.255 HD
ATOM     23 HH22 ARG A   5      23.464  32.848  20.939  0.00  0.00    +0.255 HD
ATOM     24  NH1 ARG A   5      26.614  32.398  20.322  0.00  0.00    -0.292 N 
ATOM     25 HH11 ARG A   5      26.678  31.388  20.560  0.00  0.00    +0.255 HD
ATOM     26 HH12 ARG A   5      27.461  32.912  20.004  0.00  0.00    +0.255 HD
ATOM     27  HE  ARG A   5      24.432  34.778  20.220  0.00  0.00    +0.259 HD
ENDBRANCH  18  19
ENDBRANCH  17  18
ENDBRANCH  16  17
ENDBRANCH  13  16
ENDBRANCH  11  13
ENDBRANCH   8   9
ENDBRANCH   1   2
BRANCH   1  30
ATOM     28  C   PHE A   2      18.530  36.559  16.456  0.00  0.00    +0.241 C 
ATOM     29  O   PHE A   2      18.031  37.509  17.065  0.00  0.00    -0.273 OA
ATOM     30  N   ASN A   3      19.806  36.190  16.564  0.00  0.00    -0.297 N 
ATOM     31  H   ASN A   3      20.208  35.585  15.820  0.00  0.00    +0.150 HD
BRANCH  28  32
ATOM     32  CA  PHE A   2      17.691  35.727  15.500  0.00  0.00    +0.153 C 
BRANCH  32  34
ATOM     33  C   HIS A   1      16.870  33.571  16.385  0.00  0.00    +0.239 C 
ATOM     34  N   PHE A   2      16.802  34.901  16.324  0.00  0.00    -0.297 N 
ATOM     35  H   PHE A   2      16.076  35.381  16.894  0.00  0.00    +0.150 HD
ATOM     36  O   HIS A   1      17.637  32.899  15.710  0.00  0.00    -0.274 OA
BRANCH  33  37
ATOM     37  CA  HIS A   1      15.889  32.884  17.323  0.00  0.00    +0.151 C 
BRANCH  37  38
ATOM     38  N   HIS A   1      14.959  32.117  16.505  0.00  0.00    -0.238 NA
ATOM     39  H   HIS A   1      15.293  31.214  16.111  0.00  0.00    +0.142 HD
ENDBRANCH  37  38
BRANCH  37  40
ATOM     40  CB  HIS A   1      16.623  31.924  18.247  0.00  0.00    +0.074 C 
BRANCH  40  41
ATOM     41  CG  HIS A   1      17.635  32.561  19.148  0.00  0.00    +0.082 A 
ATOM     42  ND1 HIS A   1      17.317  33.533  20.070  0.00  0.00    -0.227 NA
ATOM     43  CE1 HIS A   1      18.403  33.866  20.746  0.00  0.00    +0.199 A 
ATOM     44  NE2 HIS A   1      19.412  33.135  20.309  0.00  0.00    -0.221 NA
ATOM     45  CD2 HIS A   1      18.956  32.301  19.317  0.00  0.00    +0.115 A 
ENDBRANCH  40  41
ENDBRANCH  37  40
ENDBRANCH  33  37
ENDBRANCH  32  34
BRANCH  32  46
ATOM     46  CB  PHE A   2      16.851  36.624  14.592  0.00  0.00    +0.055 C 
BRANCH  46  47
ATOM     47  CG  PHE A   2      17.640  37.534  13.705  0.00  0.00    -0.020 A 
ATOM     48  CD2 PHE A   2      17.941  38.821  14.103  0.00  0.00    -0.004 A 
ATOM     49  CE2 PHE A   2      18.650  39.679  13.260  0.00  0.00    -0.000 A 
ATOM     50  CZ  PHE A   2      19.037  39.250  11.990  0.00  0.00    -0.000 A 
ATOM     51  CE1 PHE A   2      18.720  37.979  11.583  0.00  0.00    -0.000 A 
ATOM     52  CD1 PHE A   2      18.014  37.130  12.433  0.00  0.00    -0.004 A 
ENDBRANCH  46  47
ENDBRANCH  32  46
ENDBRANCH  28  32
ENDBRANCH   1  30
BRANCH   1  53
ATOM     53  CB  ASN A   3      20.924  35.348  18.556  0.00  0.00    +0.114 C 
BRANCH  53  54
ATOM     54  CG  ASN A   3      21.890  35.590  19.720  0.00  0.00    +0.222 C 
ATOM     55  ND2 ASN A   3      21.880  36.798  20.297  0.00  0.00    -0.329 N 
ATOM     56 HD21 ASN A   3      22.513  36.997  21.098  0.00  0.00    +0.145 HD
ATOM     57 HD22 ASN A   3      21.240  37.538  19.944  0.00  0.00    +0.145 HD
ATOM     58  OD1 ASN A   3      22.628  34.679  20.098  0.00  0.00    -0.275 OA
ENDBRANCH  53  54
ENDBRANCH   1  53
TORSDOF 19
REMARK  Name = ../refined-set-2016/3ap4/3ap4_pocket.pdb
REMARK  113 active torsions:
REMARK  status: ('A' for Active; 'I' for Inactive)
REMARK    1  A    between atoms: _1  and  _3
REMARK    2  A    between atoms: _3  and  _4
REMARK    3  A    between atoms: _3  and  _6
REMARK    4  A    between atoms: _6  and  _7
REMARK    5  A    between atoms: _7  and  _8
REMARK    6  A    between atoms: _8  and  _9
REMARK    7  A    between atoms: _18  and  _20
REMARK    8  A    between atoms: _20  and  _21
REMARK    9  A    between atoms: _20  and  _23
REMARK   10  A    between atoms: _23  and  _24
REMARK   11  A    between atoms: _30  and  _32
REMARK   12  A    between atoms: _32  and  _33
REMARK   13  A    between atoms: _32  and  _35
REMARK   14  A    between atoms: _35  and  _36
REMARK   15  A    between atoms: _36  and  _37
REMARK   16  A    between atoms: _42  and  _44
REMARK   17  A    between atoms: _44  and  _45
REMARK   18  A    between atoms: _44  and  _47
REMARK   19  A    between atoms: _47  and  _48
REMARK   20  A    between atoms: _51  and  _53
REMARK   21  A    between atoms: _53  and  _54
REMARK   22  A    between atoms: _53  and  _56
REMARK   23  A    between atoms: _56  and  _57
REMARK   24  A    between atoms: _57  and  _58
REMARK   25  A    between atoms: _58  and  _59
REMARK   26  A    between atoms: _68  and  _70
REMARK   27  A    between atoms: _70  and  _71
REMARK   28  A    between atoms: _70  and  _73
REMARK   29  A    between atoms: _73  and  _74
REMARK   30  A    between atoms: _79  and  _81
REMARK   31  A    between atoms: _81  and  _82
REMARK   32  A    between atoms: _81  and  _84
REMARK   33  A    between atoms: _84  and  _85
REMARK   34  A    between atoms: _91  and  _93
REMARK   35  A    between atoms: _93  and  _94
REMARK   36  A    between atoms: _93  and  _96
REMARK   37  A    between atoms: _96  and  _97
REMARK   38  A    between atoms: _103  and  _104
REMARK   39  A    between atoms: _109  and  _111
REMARK   40  A    between atoms: _111  and  _112
REMARK   41  A    between atoms: _111  and  _114
REMARK   42  A    between atoms: _114  and  _115
REMARK   43  A    between atoms: _115  and  _116
REMARK   44  A    between atoms: _116  and  _117
REMARK   45  A    between atoms: _126  and  _128
REMARK   46  A    between atoms: _128  and  _129
REMARK   47  A    between atoms: _128  and  _131
REMARK   48  A    between atoms: _131  and  _132
REMARK   49  A    between atoms: _132  and  _133
REMARK   50  A    between atoms: _133  and  _134
REMARK   51  A    between atoms: _134  and  _135
REMARK   52  A    between atoms: _139  and  _141
REMARK   53  A    between atoms: _141  and  _142
REMARK   54  A    between atoms: _141  and  _144
REMARK   55  A    between atoms: _147  and  _149
REMARK   56  A    between atoms: _149  and  _150
REMARK   57  A    between atoms: _149  and  _152
REMARK   58  A    between atoms: _154  and  _156
REMARK   59  A    between atoms: _156  and  _157
REMARK   60  A    between atoms: _156  and  _159
REMARK   61  A    between atoms: _159  and  _160
REMARK   62  A    between atoms: _165  and  _167
REMARK   63  A    between atoms: _167  and  _168
REMARK   64  A    between atoms: _167  and  _170
REMARK   65  A    between atoms: _170  and  _171
REMARK   66  A    between atoms: _174  and  _176
REMARK   67  A    between atoms: _176  and  _177
REMARK   68  A    between atoms: _176  and  _179
REMARK   69  A    between atoms: _179  and  _180
REMARK   70  A    between atoms: _183  and  _185
REMARK   71  A    between atoms: _185  and  _186
REMARK   72  A    between atoms: _185  and  _188
REMARK   73  A    between atoms: _188  and  _189
REMARK   74  A    between atoms: _189  and  _190
REMARK   75  A    between atoms: _190  and  _191
REMARK   76  A    between atoms: _191  and  _192
REMARK   77  A    between atoms: _196  and  _198
REMARK   78  A    between atoms: _198  and  _199
REMARK   79  A    between atoms: _198  and  _201
REMARK   80  A    between atoms: _201  and  _202
REMARK   81  A    between atoms: _212  and  _214
REMARK   82  A    between atoms: _214  and  _215
REMARK   83  A    between atoms: _217  and  _219
REMARK   84  A    between atoms: _219  and  _220
REMARK   85  A    between atoms: _219  and  _222
REMARK   86  A    between atoms: _222  and  _223
REMARK   87  A    between atoms: _223  and  _224
REMARK   88  A    between atoms: _224  and  _225
REMARK   89  A    between atoms: _234  and  _236
REMARK   90  A    between atoms: _236  and  _237
REMARK   91  A    between atoms: _236  and  _239
REMARK   92  A    between atoms: _239  and  _240
REMARK   93  A    between atoms: _240  and  _241
REMARK   94  A    between atoms: _244  and  _246
REMARK   95  A    between atoms: _246  and  _247
REMARK   96  A    between atoms: _246  and  _249
REMARK   97  A    between atoms: _249  and  _250
REMARK   98  A    between atoms: _250  and  _251
REMARK   99  A    between atoms: _254  and  _256
REMARK  100  A    between atoms: _256  and  _257
REMARK  101  A    between atoms: _256  and  _259
REMARK  102  A    between atoms: _259  and  _260
REMARK  103  A    between atoms: _263  and  _265
REMARK  104  A    between atoms: _265  and  _266
REMARK  105  A    between atoms: _265  and  _268
REMARK  106  A    between atoms: _268  and  _269
REMARK  107  A    between atoms: _274  and  _275
REMARK  108  A    between atoms: _277  and  _279
REMARK  109  A    between atoms: _279  and  _280
REMARK  110  A    between atoms: _279  and  _282
REMARK  111  A    between atoms: _282  and  _283
REMARK  112  A    between atoms: _283  and  _284
REMARK  113  A    between atoms: _284  and  _285
REMARK                            x       y       z     vdW  Elec       q    Type
REMARK                         _______ _______ _______ _____ _____    ______ ____
ROOT
ATOM      1  CG  LYS A   1      33.024  37.402  20.342  0.00  0.00    -0.000 C 
ENDROOT
BRANCH   1   2
ATOM      2  CB  LYS A   1      32.483  38.684  21.029  0.00  0.00    +0.025 C 
BRANCH   2   3
ATOM      3  CA  LYS A   1      32.406  39.925  20.105  0.00  0.00    +0.133 C 
BRANCH   3   4
ATOM      4  N   LYS A   1      31.026  40.226  19.705  0.00  0.00    -0.239 NA
ATOM      5  H   LYS A   1      30.259  39.593  20.007  0.00  0.00    +0.142 HD
ENDBRANCH   3   4
BRANCH   3   6
ATOM      6  C   LYS A   1      33.281  39.738  18.853  0.00  0.00    +0.224 C 
ATOM      7  O   LYS A   1      32.831  39.184  17.843  0.00  0.00    -0.287 OA
ENDBRANCH   3   6
ENDBRANCH   2   3
ENDBRANCH   1   2
BRANCH   1   8
ATOM      8  CD  LYS A   1      32.940  36.119  21.181  0.00  0.00    -0.024 C 
BRANCH   8   9
ATOM      9  CE  LYS A   1      33.626  34.960  20.424  0.00  0.00    -0.086 C 
BRANCH   9  10
ATOM     10  NZ  LYS A   1      33.471  33.615  21.073  0.00  0.00    +0.380 N 
ATOM     11  HZ1 LYS A   1      33.885  33.642  22.027  0.00  0.00    -0.089 HD
ATOM     12  HZ2 LYS A   1      32.461  33.378  21.139  0.00  0.00    -0.089 HD
ATOM     13  HZ3 LYS A   1      33.960  32.897  20.501  0.00  0.00    -0.089 HD
ENDBRANCH   9  10
ENDBRANCH   8   9
ENDBRANCH   1   8
TORSDOF 7
REMARK  Name = ../refined-set-2016/3ap4/3ap4_pocket.pdb
REMARK  113 active torsions:
REMARK  status: ('A' for Active; 'I' for Inactive)
REMARK    1  A    between atoms: _1  and  _3
REMARK    2  A    between atoms: _3  and  _4
REMARK    3  A    between atoms: _3  and  _6
REMARK    4  A    between atoms: _6  and  _7
REMARK    5  A    between atoms: _7  and  _8
REMARK    6  A    between atoms: _8  and  _9
REMARK    7  A    between atoms: _18  and  _20
REMARK    8  A    between atoms: _20  and  _21
REMARK    9  A    between atoms: _20  and  _23
REMARK   10  A    between atoms: _23  and  _24
REMARK   11  A    between atoms: _30  and  _32
REMARK   12  A    between atoms: _32  and  _33
REMARK   13  A    between atoms: _32  and  _35
REMARK   14  A    between atoms: _35  and  _36
REMARK   15  A    between atoms: _36  and  _37
REMARK   16  A    between atoms: _42  and  _44
REMARK   17  A    between atoms: _44  and  _45
REMARK   18  A    between atoms: _44  and  _47
REMARK   19  A    between atoms: _47  and  _48
REMARK   20  A    between atoms: _51  and  _53
REMARK   21  A    between atoms: _53  and  _54
REMARK   22  A    between atoms: _53  and  _56
REMARK   23  A    between atoms: _56  and  _57
REMARK   24  A    between atoms: _57  and  _58
REMARK   25  A    between atoms: _58  and  _59
REMARK   26  A    between atoms: _68  and  _70
REMARK   27  A    between atoms: _70  and  _71
REMARK   28  A    between atoms: _70  and  _73
REMARK   29  A    between atoms: _73  and  _74
REMARK   30  A    between atoms: _79  and  _81
REMARK   31  A    between atoms: _81  and  _82
REMARK   32  A    between atoms: _81  and  _84
REMARK   33  A    between atoms: _84  and  _85
REMARK   34  A    between atoms: _91  and  _93
REMARK   35  A    between atoms: _93  and  _94
REMARK   36  A    between atoms: _93  and  _96
REMARK   37  A    between atoms: _96  and  _97
REMARK   38  A    between atoms: _103  and  _104
REMARK   39  A    between atoms: _109  and  _111
REMARK   40  A    between atoms: _111  and  _112
REMARK   41  A    between atoms: _111  and  _114
REMARK   42  A    between atoms: _114  and  _115
REMARK   43  A    between atoms: _115  and  _116
REMARK   44  A    between atoms: _116  and  _117
REMARK   45  A    between atoms: _126  and  _128
REMARK   46  A    between atoms: _128  and  _129
REMARK   47  A    between atoms: _128  and  _131
REMARK   48  A    between atoms: _131  and  _132
REMARK   49  A    between atoms: _132  and  _133
REMARK   50  A    between atoms: _133  and  _134
REMARK   51  A    between atoms: _134  and  _135
REMARK   52  A    between atoms: _139  and  _141
REMARK   53  A    between atoms: _141  and  _142
REMARK   54  A    between atoms: _141  and  _144
REMARK   55  A    between atoms: _147  and  _149
REMARK   56  A    between atoms: _149  and  _150
REMARK   57  A    between atoms: _149  and  _152
REMARK   58  A    between atoms: _154  and  _156
REMARK   59  A    between atoms: _156  and  _157
REMARK   60  A    between atoms: _156  and  _159
REMARK   61  A    between atoms: _159  and  _160
REMARK   62  A    between atoms: _165  and  _167
REMARK   63  A    between atoms: _167  and  _168
REMARK   64  A    between atoms: _167  and  _170
REMARK   65  A    between atoms: _170  and  _171
REMARK   66  A    between atoms: _174  and  _176
REMARK   67  A    between atoms: _176  and  _177
REMARK   68  A    between atoms: _176  and  _179
REMARK   69  A    between atoms: _179  and  _180
REMARK   70  A    between atoms: _183  and  _185
REMARK   71  A    between atoms: _185  and  _186
REMARK   72  A    between atoms: _185  and  _188
REMARK   73  A    between atoms: _188  and  _189
REMARK   74  A    between atoms: _189  and  _190
REMARK   75  A    between atoms: _190  and  _191
REMARK   76  A    between atoms: _191  and  _192
REMARK   77  A    between atoms: _196  and  _198
REMARK   78  A    between atoms: _198  and  _199
REMARK   79  A    between atoms: _198  and  _201
REMARK   80  A    between atoms: _201  and  _202
REMARK   81  A    between atoms: _212  and  _214
REMARK   82  A    between atoms: _214  and  _215
REMARK   83  A    between atoms: _217  and  _219
REMARK   84  A    between atoms: _219  and  _220
REMARK   85  A    between atoms: _219  and  _222
REMARK   86  A    between atoms: _222  and  _223
REMARK   87  A    between atoms: _223  and  _224
REMARK   88  A    between atoms: _224  and  _225
REMARK   89  A    between atoms: _234  and  _236
REMARK   90  A    between atoms: _236  and  _237
REMARK   91  A    between atoms: _236  and  _239
REMARK   92  A    between atoms: _239  and  _240
REMARK   93  A    between atoms: _240  and  _241
REMARK   94  A    between atoms: _244  and  _246
REMARK   95  A    between atoms: _246  and  _247
REMARK   96  A    between atoms: _246  and  _249
REMARK   97  A    between atoms: _249  and  _250
REMARK   98  A    between atoms: _250  and  _251
REMARK   99  A    between atoms: _254  and  _256
REMARK  100  A    between atoms: _256  and  _257
REMARK  101  A    between atoms: _256  and  _259
REMARK  102  A    between atoms: _259  and  _260
REMARK  103  A    between atoms: _263  and  _265
REMARK  104  A    between atoms: _265  and  _266
REMARK  105  A    between atoms: _265  and  _268
REMARK  106  A    between atoms: _268  and  _269
REMARK  107  A    between atoms: _274  and  _275
REMARK  108  A    between atoms: _277  and  _279
REMARK  109  A    between atoms: _279  and  _280
REMARK  110  A    between atoms: _279  and  _282
REMARK  111  A    between atoms: _282  and  _283
REMARK  112  A    between atoms: _283  and  _284
REMARK  113  A    between atoms: _284  and  _285
REMARK                            x       y       z     vdW  Elec       q    Type
REMARK                         _______ _______ _______ _____ _____    ______ ____
ROOT
ATOM      1  CA  ASN A   3      18.374  28.579  15.994  0.00  0.00    +0.158 C 
ENDROOT
BRANCH   1   3
ATOM      2  C   CYS A   2      19.777  30.140  14.752  0.00  0.00    +0.242 C 
ATOM      3  N   ASN A   3      18.662  29.890  15.430  0.00  0.00    -0.297 N 
ATOM      4  H   ASN A   3      17.972  30.657  15.562  0.00  0.00    +0.150 HD
ATOM      5  O   CYS A   2      20.623  29.276  14.508  0.00  0.00    -0.273 OA
BRANCH   2   6
ATOM      6  CA  CYS A   2      19.967  31.585  14.289  0.00  0.00    +0.160 C 
BRANCH   6   9
ATOM      7  C   VAL A   1      21.805  32.923  15.153  0.00  0.00    +0.238 C 
ATOM      8  O   VAL A   1      21.041  33.659  15.786  0.00  0.00    -0.274 OA
ATOM      9  N   CYS A   2      21.377  31.958  14.344  0.00  0.00    -0.297 N 
ATOM     10  H   CYS A   2      22.060  31.460  13.739  0.00  0.00    +0.150 HD
BRANCH   7  11
ATOM     11  CA  VAL A   1      23.315  33.116  15.239  0.00  0.00    +0.145 C 
BRANCH  11  12
ATOM     12  CB  VAL A   1      23.832  32.702  16.609  0.00  0.00    +0.025 C 
ATOM     13  CG2 VAL A   1      23.281  31.332  17.018  0.00  0.00    +0.002 C 
ATOM     14  CG1 VAL A   1      25.360  32.717  16.589  0.00  0.00    +0.002 C 
ENDBRANCH  11  12
BRANCH  11  15
ATOM     15  N   VAL A   1      23.638  34.511  14.971  0.00  0.00    -0.238 NA
ATOM     16  H   VAL A   1      23.463  35.227  15.705  0.00  0.00    +0.142 HD
ENDBRANCH  11  15
ENDBRANCH   7  11
ENDBRANCH   6   9
BRANCH   6  17
ATOM     17  CB  CYS A   2      19.377  31.803  12.892  0.00  0.00    +0.098 C 
ATOM     18  SG  CYS A   2      19.509  33.501  12.271  0.00  0.00    -0.080 S 
ENDBRANCH   6  17
ENDBRANCH   2   6
ENDBRANCH   1   3
BRANCH   1  19
ATOM     19  C   ASN A   3      16.892  28.513  16.326  0.00  0.00    +0.241 C 
ATOM     20  N   THR A   4      16.482  27.381  16.895  0.00  0.00    -0.295 N 
ATOM     21  H   THR A   4      17.176  26.615  17.016  0.00  0.00    +0.150 HD
ATOM     22  O   ASN A   3      16.141  29.459  16.049  0.00  0.00    -0.273 OA
BRANCH  20  23
ATOM     23  CA  THR A   4      15.128  27.152  17.356  0.00  0.00    +0.176 C 
BRANCH  23  24
ATOM     24  C   THR A   4      15.199  26.518  18.735  0.00  0.00    +0.243 C 
ATOM     25  N   LEU A   5      14.315  26.939  19.642  0.00  0.00    -0.298 N 
ATOM     26  H   LEU A   5      13.675  27.719  19.389  0.00  0.00    +0.150 HD
ATOM     27  O   THR A   4      16.064  25.683  18.976  0.00  0.00    -0.273 OA
BRANCH  25  28
ATOM     28  CA  LEU A   5      14.207  26.346  20.987  0.00  0.00    +0.137 C 
BRANCH  28  29
ATOM     29  C   LEU A   5      12.920  25.510  21.059  0.00  0.00    +0.227 C 
ATOM     30  O   LEU A   5      11.809  26.046  20.965  0.00  0.00    -0.286 OA
ENDBRANCH  28  29
BRANCH  28  31
ATOM     31  CB  LEU A   5      14.204  27.428  22.074  0.00  0.00    +0.028 C 
BRANCH  31  32
ATOM     32  CG  LEU A   5      14.248  26.956  23.539  0.00  0.00    +0.002 C 
ATOM     33  CD2 LEU A   5      13.691  28.013  24.509  0.00  0.00    +0.000 C 
ATOM     34  CD1 LEU A   5      15.664  26.582  23.945  0.00  0.00    +0.000 C 
ENDBRANCH  31  32
ENDBRANCH  28  31
ENDBRANCH  25  28
ENDBRANCH  23  24
BRANCH  23  35
ATOM     35  CB  THR A   4      14.416  26.213  16.399  0.00  0.00    +0.137 C 
ATOM     36  CG2 THR A   4      13.059  25.719  16.982  0.00  0.00    +0.034 C 
BRANCH  35  37
ATOM     37  OG1 THR A   4      14.209  26.894  15.159  0.00  0.00    -0.382 OA
ATOM     38  HG1 THR A   4      13.655  27.700  15.315  0.00  0.00    +0.210 HD
ENDBRANCH  35  37
ENDBRANCH  23  35
ENDBRANCH  20  23
ENDBRANCH   1  19
BRANCH   1  39
ATOM     39  CB  ASN A   3      19.223  28.359  17.263  0.00  0.00    +0.114 C 
BRANCH  39  40
ATOM     40  CG  ASN A   3      19.603  26.885  17.504  0.00  0.00    +0.222 C 
ATOM     41  OD1 ASN A   3      20.504  26.605  18.286  0.00  0.00    -0.275 OA
ATOM     42  ND2 ASN A   3      18.930  25.960  16.841  0.00  0.00    -0.329 N 
ATOM     43 HD21 ASN A   3      19.159  24.954  16.975  0.00  0.00    +0.145 HD
ATOM     44 HD22 ASN A   3      18.172  26.238  16.186  0.00  0.00    +0.145 HD
ENDBRANCH  39  40
ENDBRANCH   1  39
TORSDOF 18
REMARK  Name = ../refined-set-2016/3ap4/3ap4_pocket.pdb
REMARK  113 active torsions:
REMARK  status: ('A' for Active; 'I' for Inactive)
REMARK    1  A    between atoms: _1  and  _3
REMARK    2  A    between atoms: _3  and  _4
REMARK    3  A    between atoms: _3  and  _6
REMARK    4  A    between atoms: _6  and  _7
REMARK    5  A    between atoms: _7  and  _8
REMARK    6  A    between atoms: _8  and  _9
REMARK    7  A    between atoms: _18  and  _20
REMARK    8  A    between atoms: _20  and  _21
REMARK    9  A    between atoms: _20  and  _23
REMARK   10  A    between atoms: _23  and  _24
REMARK   11  A    between atoms: _30  and  _32
REMARK   12  A    between atoms: _32  and  _33
REMARK   13  A    between atoms: _32  and  _35
REMARK   14  A    between atoms: _35  and  _36
REMARK   15  A    between atoms: _36  and  _37
REMARK   16  A    between atoms: _42  and  _44
REMARK   17  A    between atoms: _44  and  _45
REMARK   18  A    between atoms: _44  and  _47
REMARK   19  A    between atoms: _47  and  _48
REMARK   20  A    between atoms: _51  and  _53
REMARK   21  A    between atoms: _53  and  _54
REMARK   22  A    between atoms: _53  and  _56
REMARK   23  A    between atoms: _56  and  _57
REMARK   24  A    between atoms: _57  and  _58
REMARK   25  A    between atoms: _58  and  _59
REMARK   26  A    between atoms: _68  and  _70
REMARK   27  A    between atoms: _70  and  _71
REMARK   28  A    between atoms: _70  and  _73
REMARK   29  A    between atoms: _73  and  _74
REMARK   30  A    between atoms: _79  and  _81
REMARK   31  A    between atoms: _81  and  _82
REMARK   32  A    between atoms: _81  and  _84
REMARK   33  A    between atoms: _84  and  _85
REMARK   34  A    between atoms: _91  and  _93
REMARK   35  A    between atoms: _93  and  _94
REMARK   36  A    between atoms: _93  and  _96
REMARK   37  A    between atoms: _96  and  _97
REMARK   38  A    between atoms: _103  and  _104
REMARK   39  A    between atoms: _109  and  _111
REMARK   40  A    between atoms: _111  and  _112
REMARK   41  A    between atoms: _111  and  _114
REMARK   42  A    between atoms: _114  and  _115
REMARK   43  A    between atoms: _115  and  _116
REMARK   44  A    between atoms: _116  and  _117
REMARK   45  A    between atoms: _126  and  _128
REMARK   46  A    between atoms: _128  and  _129
REMARK   47  A    between atoms: _128  and  _131
REMARK   48  A    between atoms: _131  and  _132
REMARK   49  A    between atoms: _132  and  _133
REMARK   50  A    between atoms: _133  and  _134
REMARK   51  A    between atoms: _134  and  _135
REMARK   52  A    between atoms: _139  and  _141
REMARK   53  A    between atoms: _141  and  _142
REMARK   54  A    between atoms: _141  and  _144
REMARK   55  A    between atoms: _147  and  _149
REMARK   56  A    between atoms: _149  and  _150
REMARK   57  A    between atoms: _149  and  _152
REMARK   58  A    between atoms: _154  and  _156
REMARK   59  A    between atoms: _156  and  _157
REMARK   60  A    between atoms: _156  and  _159
REMARK   61  A    between atoms: _159  and  _160
REMARK   62  A    between atoms: _165  and  _167
REMARK   63  A    between atoms: _167  and  _168
REMARK   64  A    between atoms: _167  and  _170
REMARK   65  A    between atoms: _170  and  _171
REMARK   66  A    between atoms: _174  and  _176
REMARK   67  A    between atoms: _176  and  _177
REMARK   68  A    between atoms: _176  and  _179
REMARK   69  A    between atoms: _179  and  _180
REMARK   70  A    between atoms: _183  and  _185
REMARK   71  A    between atoms: _185  and  _186
REMARK   72  A    between atoms: _185  and  _188
REMARK   73  A    between atoms: _188  and  _189
REMARK   74  A    between atoms: _189  and  _190
REMARK   75  A    between atoms: _190  and  _191
REMARK   76  A    between atoms: _191  and  _192
REMARK   77  A    between atoms: _196  and  _198
REMARK   78  A    between atoms: _198  and  _199
REMARK   79  A    between atoms: _198  and  _201
REMARK   80  A    between atoms: _201  and  _202
REMARK   81  A    between atoms: _212  and  _214
REMARK   82  A    between atoms: _214  and  _215
REMARK   83  A    between atoms: _217  and  _219
REMARK   84  A    between atoms: _219  and  _220
REMARK   85  A    between atoms: _219  and  _222
REMARK   86  A    between atoms: _222  and  _223
REMARK   87  A    between atoms: _223  and  _224
REMARK   88  A    between atoms: _224  and  _225
REMARK   89  A    between atoms: _234  and  _236
REMARK   90  A    between atoms: _236  and  _237
REMARK   91  A    between atoms: _236  and  _239
REMARK   92  A    between atoms: _239  and  _240
REMARK   93  A    between atoms: _240  and  _241
REMARK   94  A    between atoms: _244  and  _246
REMARK   95  A    between atoms: _246  and  _247
REMARK   96  A    between atoms: _246  and  _249
REMARK   97  A    between atoms: _249  and  _250
REMARK   98  A    between atoms: _250  and  _251
REMARK   99  A    between atoms: _254  and  _256
REMARK  100  A    between atoms: _256  and  _257
REMARK  101  A    between atoms: _256  and  _259
REMARK  102  A    between atoms: _259  and  _260
REMARK  103  A    between atoms: _263  and  _265
REMARK  104  A    between atoms: _265  and  _266
REMARK  105  A    between atoms: _265  and  _268
REMARK  106  A    between atoms: _268  and  _269
REMARK  107  A    between atoms: _274  and  _275
REMARK  108  A    between atoms: _277  and  _279
REMARK  109  A    between atoms: _279  and  _280
REMARK  110  A    between atoms: _279  and  _282
REMARK  111  A    between atoms: _282  and  _283
REMARK  112  A    between atoms: _283  and  _284
REMARK  113  A    between atoms: _284  and  _285
REMARK                            x       y       z     vdW  Elec       q    Type
REMARK                         _______ _______ _______ _____ _____    ______ ____
ROOT
ATOM      1  CA  ARG A   4      21.527  23.134  15.269  0.00  0.00    +0.149 C 
ENDROOT
BRANCH   1   2
ATOM      2  C   ARG A   4      21.552  24.649  15.032  0.00  0.00    +0.241 C 
ATOM      3  N   GLU A   5      22.709  25.266  15.267  0.00  0.00    -0.297 N 
ATOM      4  H   GLU A   5      23.506  24.707  15.632  0.00  0.00    +0.150 HD
ATOM      5  O   ARG A   4      20.544  25.230  14.647  0.00  0.00    -0.273 OA
BRANCH   3   6
ATOM      6  CA  GLU A   5      22.906  26.699  15.033  0.00  0.00    +0.149 C 
BRANCH   6   7
ATOM      7  C   GLU A   5      23.201  26.941  13.563  0.00  0.00    +0.241 C 
ATOM      8  N   GLU A   6      22.638  28.009  13.000  0.00  0.00    -0.297 N 
ATOM      9  H   GLU A   6      21.910  28.532  13.528  0.00  0.00    +0.150 HD
ATOM     10  O   GLU A   5      23.918  26.165  12.952  0.00  0.00    -0.273 OA
BRANCH   8  11
ATOM     11  CA  GLU A   6      23.013  28.472  11.656  0.00  0.00    +0.149 C 
BRANCH  11  12
ATOM     12  C   GLU A   6      23.639  29.858  11.820  0.00  0.00    +0.241 C 
ATOM     13  O   GLU A   6      22.959  30.828  12.178  0.00  0.00    -0.273 OA
ATOM     14  N   ILE A   7      24.943  29.936  11.586  0.00  0.00    -0.298 N 
ATOM     15  H   ILE A   7      25.436  29.107  11.197  0.00  0.00    +0.150 HD
BRANCH  14  16
ATOM     16  CA  ILE A   7      25.702  31.142  11.856  0.00  0.00    +0.137 C 
BRANCH  16  17
ATOM     17  C   ILE A   7      25.981  31.872  10.557  0.00  0.00    +0.227 C 
ATOM     18  O   ILE A   7      26.566  31.302   9.645  0.00  0.00    -0.286 OA
ENDBRANCH  16  17
BRANCH  16  19
ATOM     19  CB  ILE A   7      27.035  30.822  12.565  0.00  0.00    +0.026 C 
ATOM     20  CG2 ILE A   7      27.739  32.106  12.977  0.00  0.00    +0.002 C 
BRANCH  19  21
ATOM     21  CG1 ILE A   7      26.786  29.950  13.803  0.00  0.00    +0.002 C 
ATOM     22  CD1 ILE A   7      28.058  29.426  14.477  0.00  0.00    +0.000 C 
ENDBRANCH  19  21
ENDBRANCH  16  19
ENDBRANCH  14  16
ENDBRANCH  11  12
BRANCH  11  23
ATOM     23  CB  GLU A   6      21.802  28.485  10.705  0.00  0.00    +0.041 C 
BRANCH  23  24
ATOM     24  CG  GLU A   6      21.039  27.133  10.670  0.00  0.00    +0.116 C 
BRANCH  24  25
ATOM     25  CD  GLU A   6      19.829  27.090   9.736  0.00  0.00    +0.365 C 
ATOM     26  OE2 GLU A   6      18.959  26.223   9.956  0.00  0.00    -0.246 OA
ATOM     27  OE1 GLU A   6      19.742  27.891   8.782  0.00  0.00    -0.246 OA
ENDBRANCH  24  25
ENDBRANCH  23  24
ENDBRANCH  11  23
ENDBRANCH   8  11
ENDBRANCH   6   7
BRANCH   6  28
ATOM     28  CB  GLU A   5      24.066  27.246  15.887  0.00  0.00    +0.041 C 
BRANCH  28  29
ATOM     29  CG  GLU A   5      23.784  27.295  17.386  0.00  0.00    +0.116 C 
BRANCH  29  30
ATOM     30  CD  GLU A   5      24.905  27.947  18.205  0.00  0.00    +0.365 C 
ATOM     31  OE2 GLU A   5      24.625  28.430  19.324  0.00  0.00    -0.246 OA
ATOM     32  OE1 GLU A   5      26.063  27.981  17.743  0.00  0.00    -0.246 OA
ENDBRANCH  29  30
ENDBRANCH  28  29
ENDBRANCH   6  28
ENDBRANCH   3   6
ENDBRANCH   1   2
BRANCH   1  35
ATOM     33  C   GLY A   3      20.212  23.167  17.326  0.00  0.00    +0.243 C 
ATOM     34  O   GLY A   3      21.052  23.833  17.918  0.00  0.00    -0.273 OA
ATOM     35  N   ARG A   4      20.364  22.763  16.069  0.00  0.00    -0.297 N 
ATOM     36  H   ARG A   4      19.630  22.163  15.641  0.00  0.00    +0.150 HD
BRANCH  33  37
ATOM     37  CA  GLY A   3      18.921  22.764  18.014  0.00  0.00    +0.176 C 
BRANCH  37  40
ATOM     38  C   TRP A   2      18.865  23.411  20.374  0.00  0.00    +0.241 C 
ATOM     39  O   TRP A   2      19.429  22.387  20.736  0.00  0.00    -0.273 OA
ATOM     40  N   GLY A   3      18.556  23.663  19.105  0.00  0.00    -0.295 N 
ATOM     41  H   GLY A   3      18.034  24.534  18.881  0.00  0.00    +0.150 HD
BRANCH  38  42
ATOM     42  CA  TRP A   2      18.478  24.473  21.394  0.00  0.00    +0.153 C 
BRANCH  42  44
ATOM     43  C   LYS A   1      16.862  23.339  22.844  0.00  0.00    +0.238 C 
ATOM     44  N   TRP A   2      18.075  23.857  22.656  0.00  0.00    -0.297 N 
ATOM     45  H   TRP A   2      18.761  23.822  23.437  0.00  0.00    +0.150 HD
ATOM     46  O   LYS A   1      15.953  23.394  22.011  0.00  0.00    -0.274 OA
BRANCH  43  47
ATOM     47  CA  LYS A   1      16.634  22.633  24.167  0.00  0.00    +0.145 C 
BRANCH  47  48
ATOM     48  N   LYS A   1      15.362  23.083  24.739  0.00  0.00    -0.238 NA
ATOM     49  H   LYS A   1      14.497  22.964  24.174  0.00  0.00    +0.142 HD
ENDBRANCH  47  48
BRANCH  47  50
ATOM     50  CB  LYS A   1      16.624  21.118  23.914  0.00  0.00    +0.026 C 
BRANCH  50  51
ATOM     51  CG  LYS A   1      17.319  20.276  24.990  0.00  0.00    -0.000 C 
BRANCH  51  52
ATOM     52  CD  LYS A   1      16.637  20.408  26.355  0.00  0.00    -0.024 C 
BRANCH  52  53
ATOM     53  CE  LYS A   1      17.092  19.307  27.327  0.00  0.00    -0.086 C 
BRANCH  53  54
ATOM     54  NZ  LYS A   1      16.484  19.477  28.683  0.00  0.00    +0.380 N 
ATOM     55  HZ1 LYS A   1      16.816  18.715  29.308  0.00  0.00    -0.089 HD
ATOM     56  HZ2 LYS A   1      16.767  20.397  29.076  0.00  0.00    -0.089 HD
ATOM     57  HZ3 LYS A   1      15.448  19.436  28.605  0.00  0.00    -0.089 HD
ENDBRANCH  53  54
ENDBRANCH  52  53
ENDBRANCH  51  52
ENDBRANCH  50  51
ENDBRANCH  47  50
ENDBRANCH  43  47
ENDBRANCH  42  44
BRANCH  42  58
ATOM     58  CB  TRP A   2      19.655  25.435  21.617  0.00  0.00    +0.057 C 
BRANCH  58  59
ATOM     59  CG  TRP A   2      19.253  26.669  22.366  0.00  0.00    -0.002 A 
ATOM     60  CD1 TRP A   2      19.536  26.972  23.664  0.00  0.00    +0.068 A 
ATOM     61  NE1 TRP A   2      18.964  28.177  24.003  0.00  0.00    -0.352 N 
ATOM     62  HE1 TRP A   2      19.028  28.636  24.934  0.00  0.00    +0.166 HD
ATOM     63  CE2 TRP A   2      18.297  28.674  22.914  0.00  0.00    +0.056 A 
ATOM     64  CZ2 TRP A   2      17.573  29.858  22.763  0.00  0.00    +0.017 A 
ATOM     65  CH2 TRP A   2      17.004  30.098  21.537  0.00  0.00    +0.001 A 
ATOM     66  CZ3 TRP A   2      17.142  29.192  20.477  0.00  0.00    +0.000 A 
ATOM     67  CE3 TRP A   2      17.863  28.017  20.628  0.00  0.00    +0.001 A 
ATOM     68  CD2 TRP A   2      18.454  27.745  21.865  0.00  0.00    +0.013 A 
ENDBRANCH  58  59
ENDBRANCH  42  58
ENDBRANCH  38  42
ENDBRANCH  37  40
ENDBRANCH  33  37
ENDBRANCH   1  35
BRANCH   1  69
ATOM     69  CB  ARG A   4      21.519  22.414  13.909  0.00  0.00    +0.033 C 
BRANCH  69  70
ATOM     70  CG  ARG A   4      22.431  21.196  13.801  0.00  0.00    +0.045 C 
BRANCH  70  71
ATOM     71  CD  ARG A   4      21.771  19.890  14.276  0.00  0.00    +0.174 C 
BRANCH  71  72
ATOM     72  NE  ARG A   4      21.646  19.833  15.734  0.00  0.00    -0.265 N 
ATOM     73  CZ  ARG A   4      21.331  18.740  16.436  0.00  0.00    +0.342 C 
ATOM     74  NH2 ARG A   4      21.253  18.816  17.762  0.00  0.00    -0.292 N 
ATOM     75 HH21 ARG A   4      21.009  17.972  18.318  0.00  0.00    +0.255 HD
ATOM     76 HH22 ARG A   4      21.436  19.720  18.243  0.00  0.00    +0.255 HD
ATOM     77  NH1 ARG A   4      21.108  17.571  15.832  0.00  0.00    -0.292 N 
ATOM     78 HH11 ARG A   4      20.864  16.732  16.396  0.00  0.00    +0.255 HD
ATOM     79 HH12 ARG A   4      21.178  17.499  14.797  0.00  0.00    +0.255 HD
ATOM     80  HE  ARG A   4      21.816  20.711  16.265  0.00  0.00    +0.259 HD
ENDBRANCH  71  72
ENDBRANCH  70  71
ENDBRANCH  69  70
ENDBRANCH   1  69
TORSDOF 33
REMARK  Name = ../refined-set-2016/3ap4/3ap4_pocket.pdb
REMARK  113 active torsions:
REMARK  status: ('A' for Active; 'I' for Inactive)
REMARK    1  A    between atoms: _1  and  _3
REMARK    2  A    between atoms: _3  and  _4
REMARK    3  A    between atoms: _3  and  _6
REMARK    4  A    between atoms: _6  and  _7
REMARK    5  A    between atoms: _7  and  _8
REMARK    6  A    between atoms: _8  and  _9
REMARK    7  A    between atoms: _18  and  _20
REMARK    8  A    between atoms: _20  and  _21
REMARK    9  A    between atoms: _20  and  _23
REMARK   10  A    between atoms: _23  and  _24
REMARK   11  A    between atoms: _30  and  _32
REMARK   12  A    between atoms: _32  and  _33
REMARK   13  A    between atoms: _32  and  _35
REMARK   14  A    between atoms: _35  and  _36
REMARK   15  A    between atoms: _36  and  _37
REMARK   16  A    between atoms: _42  and  _44
REMARK   17  A    between atoms: _44  and  _45
REMARK   18  A    between atoms: _44  and  _47
REMARK   19  A    between atoms: _47  and  _48
REMARK   20  A    between atoms: _51  and  _53
REMARK   21  A    between atoms: _53  and  _54
REMARK   22  A    between atoms: _53  and  _56
REMARK   23  A    between atoms: _56  and  _57
REMARK   24  A    between atoms: _57  and  _58
REMARK   25  A    between atoms: _58  and  _59
REMARK   26  A    between atoms: _68  and  _70
REMARK   27  A    between atoms: _70  and  _71
REMARK   28  A    between atoms: _70  and  _73
REMARK   29  A    between atoms: _73  and  _74
REMARK   30  A    between atoms: _79  and  _81
REMARK   31  A    between atoms: _81  and  _82
REMARK   32  A    between atoms: _81  and  _84
REMARK   33  A    between atoms: _84  and  _85
REMARK   34  A    between atoms: _91  and  _93
REMARK   35  A    between atoms: _93  and  _94
REMARK   36  A    between atoms: _93  and  _96
REMARK   37  A    between atoms: _96  and  _97
REMARK   38  A    between atoms: _103  and  _104
REMARK   39  A    between atoms: _109  and  _111
REMARK   40  A    between atoms: _111  and  _112
REMARK   41  A    between atoms: _111  and  _114
REMARK   42  A    between atoms: _114  and  _115
REMARK   43  A    between atoms: _115  and  _116
REMARK   44  A    between atoms: _116  and  _117
REMARK   45  A    between atoms: _126  and  _128
REMARK   46  A    between atoms: _128  and  _129
REMARK   47  A    between atoms: _128  and  _131
REMARK   48  A    between atoms: _131  and  _132
REMARK   49  A    between atoms: _132  and  _133
REMARK   50  A    between atoms: _133  and  _134
REMARK   51  A    between atoms: _134  and  _135
REMARK   52  A    between atoms: _139  and  _141
REMARK   53  A    between atoms: _141  and  _142
REMARK   54  A    between atoms: _141  and  _144
REMARK   55  A    between atoms: _147  and  _149
REMARK   56  A    between atoms: _149  and  _150
REMARK   57  A    between atoms: _149  and  _152
REMARK   58  A    between atoms: _154  and  _156
REMARK   59  A    between atoms: _156  and  _157
REMARK   60  A    between atoms: _156  and  _159
REMARK   61  A    between atoms: _159  and  _160
REMARK   62  A    between atoms: _165  and  _167
REMARK   63  A    between atoms: _167  and  _168
REMARK   64  A    between atoms: _167  and  _170
REMARK   65  A    between atoms: _170  and  _171
REMARK   66  A    between atoms: _174  and  _176
REMARK   67  A    between atoms: _176  and  _177
REMARK   68  A    between atoms: _176  and  _179
REMARK   69  A    between atoms: _179  and  _180
REMARK   70  A    between atoms: _183  and  _185
REMARK   71  A    between atoms: _185  and  _186
REMARK   72  A    between atoms: _185  and  _188
REMARK   73  A    between atoms: _188  and  _189
REMARK   74  A    between atoms: _189  and  _190
REMARK   75  A    between atoms: _190  and  _191
REMARK   76  A    between atoms: _191  and  _192
REMARK   77  A    between atoms: _196  and  _198
REMARK   78  A    between atoms: _198  and  _199
REMARK   79  A    between atoms: _198  and  _201
REMARK   80  A    between atoms: _201  and  _202
REMARK   81  A    between atoms: _212  and  _214
REMARK   82  A    between atoms: _214  and  _215
REMARK   83  A    between atoms: _217  and  _219
REMARK   84  A    between atoms: _219  and  _220
REMARK   85  A    between atoms: _219  and  _222
REMARK   86  A    between atoms: _222  and  _223
REMARK   87  A    between atoms: _223  and  _224
REMARK   88  A    between atoms: _224  and  _225
REMARK   89  A    between atoms: _234  and  _236
REMARK   90  A    between atoms: _236  and  _237
REMARK   91  A    between atoms: _236  and  _239
REMARK   92  A    between atoms: _239  and  _240
REMARK   93  A    between atoms: _240  and  _241
REMARK   94  A    between atoms: _244  and  _246
REMARK   95  A    between atoms: _246  and  _247
REMARK   96  A    between atoms: _246  and  _249
REMARK   97  A    between atoms: _249  and  _250
REMARK   98  A    between atoms: _250  and  _251
REMARK   99  A    between atoms: _254  and  _256
REMARK  100  A    between atoms: _256  and  _257
REMARK  101  A    between atoms: _256  and  _259
REMARK  102  A    between atoms: _259  and  _260
REMARK  103  A    between atoms: _263  and  _265
REMARK  104  A    between atoms: _265  and  _266
REMARK  105  A    between atoms: _265  and  _268
REMARK  106  A    between atoms: _268  and  _269
REMARK  107  A    between atoms: _274  and  _275
REMARK  108  A    between atoms: _277  and  _279
REMARK  109  A    between atoms: _279  and  _280
REMARK  110  A    between atoms: _279  and  _282
REMARK  111  A    between atoms: _282  and  _283
REMARK  112  A    between atoms: _283  and  _284
REMARK  113  A    between atoms: _284  and  _285
REMARK                            x       y       z     vdW  Elec       q    Type
REMARK                         _______ _______ _______ _____ _____    ______ ____
ROOT
ATOM      1  CG  TYR A   1      16.134  29.986  10.397  0.00  0.00    -0.020 A 
ATOM      2  CD2 TYR A   1      15.006  29.419  10.984  0.00  0.00    -0.001 A 
ATOM      3  CE2 TYR A   1      15.120  28.580  12.074  0.00  0.00    +0.036 A 
ATOM      4  CZ  TYR A   1      16.375  28.309  12.600  0.00  0.00    +0.134 A 
ATOM      5  CE1 TYR A   1      17.500  28.865  12.042  0.00  0.00    +0.036 A 
ATOM      6  CD1 TYR A   1      17.378  29.692  10.944  0.00  0.00    -0.001 A 
ENDROOT
BRANCH   4   7
ATOM      7  OH  TYR A   1      16.499  27.484  13.686  0.00  0.00    -0.506 OA
ATOM      8  HH  TYR A   1      15.997  27.867  14.449  0.00  0.00    +0.292 HD
ENDBRANCH   4   7
BRANCH   1   9
ATOM      9  CB  TYR A   1      16.013  30.908   9.206  0.00  0.00    +0.051 C 
BRANCH   9  10
ATOM     10  CA  TYR A   1      16.091  30.197   7.855  0.00  0.00    +0.137 C 
BRANCH  10  11
ATOM     11  N   TYR A   1      16.184  31.169   6.775  0.00  0.00    -0.239 NA
ATOM     12  H   TYR A   1      15.310  31.536   6.347  0.00  0.00    +0.142 HD
ENDBRANCH  10  11
BRANCH  10  13
ATOM     13  C   TYR A   1      14.864  29.317   7.673  0.00  0.00    +0.224 C 
ATOM     14  O   TYR A   1      13.739  29.779   7.836  0.00  0.00    -0.287 OA
ENDBRANCH  10  13
ENDBRANCH   9  10
ENDBRANCH   1   9
TORSDOF 5
REMARK  Name = ../refined-set-2016/3ap4/3ap4_pocket.pdb
REMARK  113 active torsions:
REMARK  status: ('A' for Active; 'I' for Inactive)
REMARK    1  A    between atoms: _1  and  _3
REMARK    2  A    between atoms: _3  and  _4
REMARK    3  A    between atoms: _3  and  _6
REMARK    4  A    between atoms: _6  and  _7
REMARK    5  A    between atoms: _7  and  _8
REMARK    6  A    between atoms: _8  and  _9
REMARK    7  A    between atoms: _18  and  _20
REMARK    8  A    between atoms: _20  and  _21
REMARK    9  A    between atoms: _20  and  _23
REMARK   10  A    between atoms: _23  and  _24
REMARK   11  A    between atoms: _30  and  _32
REMARK   12  A    between atoms: _32  and  _33
REMARK   13  A    between atoms: _32  and  _35
REMARK   14  A    between atoms: _35  and  _36
REMARK   15  A    between atoms: _36  and  _37
REMARK   16  A    between atoms: _42  and  _44
REMARK   17  A    between atoms: _44  and  _45
REMARK   18  A    between atoms: _44  and  _47
REMARK   19  A    between atoms: _47  and  _48
REMARK   20  A    between atoms: _51  and  _53
REMARK   21  A    between atoms: _53  and  _54
REMARK   22  A    between atoms: _53  and  _56
REMARK   23  A    between atoms: _56  and  _57
REMARK   24  A    between atoms: _57  and  _58
REMARK   25  A    between atoms: _58  and  _59
REMARK   26  A    between atoms: _68  and  _70
REMARK   27  A    between atoms: _70  and  _71
REMARK   28  A    between atoms: _70  and  _73
REMARK   29  A    between atoms: _73  and  _74
REMARK   30  A    between atoms: _79  and  _81
REMARK   31  A    between atoms: _81  and  _82
REMARK   32  A    between atoms: _81  and  _84
REMARK   33  A    between atoms: _84  and  _85
REMARK   34  A    between atoms: _91  and  _93
REMARK   35  A    between atoms: _93  and  _94
REMARK   36  A    between atoms: _93  and  _96
REMARK   37  A    between atoms: _96  and  _97
REMARK   38  A    between atoms: _103  and  _104
REMARK   39  A    between atoms: _109  and  _111
REMARK   40  A    between atoms: _111  and  _112
REMARK   41  A    between atoms: _111  and  _114
REMARK   42  A    between atoms: _114  and  _115
REMARK   43  A    between atoms: _115  and  _116
REMARK   44  A    between atoms: _116  and  _117
REMARK   45  A    between atoms: _126  and  _128
REMARK   46  A    between atoms: _128  and  _129
REMARK   47  A    between atoms: _128  and  _131
REMARK   48  A    between atoms: _131  and  _132
REMARK   49  A    between atoms: _132  and  _133
REMARK   50  A    between atoms: _133  and  _134
REMARK   51  A    between atoms: _134  and  _135
REMARK   52  A    between atoms: _139  and  _141
REMARK   53  A    between atoms: _141  and  _142
REMARK   54  A    between atoms: _141  and  _144
REMARK   55  A    between atoms: _147  and  _149
REMARK   56  A    between atoms: _149  and  _150
REMARK   57  A    between atoms: _149  and  _152
REMARK   58  A    between atoms: _154  and  _156
REMARK   59  A    between atoms: _156  and  _157
REMARK   60  A    between atoms: _156  and  _159
REMARK   61  A    between atoms: _159  and  _160
REMARK   62  A    between atoms: _165  and  _167
REMARK   63  A    between atoms: _167  and  _168
REMARK   64  A    between atoms: _167  and  _170
REMARK   65  A    between atoms: _170  and  _171
REMARK   66  A    between atoms: _174  and  _176
REMARK   67  A    between atoms: _176  and  _177
REMARK   68  A    between atoms: _176  and  _179
REMARK   69  A    between atoms: _179  and  _180
REMARK   70  A    between atoms: _183  and  _185
REMARK   71  A    between atoms: _185  and  _186
REMARK   72  A    between atoms: _185  and  _188
REMARK   73  A    between atoms: _188  and  _189
REMARK   74  A    between atoms: _189  and  _190
REMARK   75  A    between atoms: _190  and  _191
REMARK   76  A    between atoms: _191  and  _192
REMARK   77  A    between atoms: _196  and  _198
REMARK   78  A    between atoms: _198  and  _199
REMARK   79  A    between atoms: _198  and  _201
REMARK   80  A    between atoms: _201  and  _202
REMARK   81  A    between atoms: _212  and  _214
REMARK   82  A    between atoms: _214  and  _215
REMARK   83  A    between atoms: _217  and  _219
REMARK   84  A    between atoms: _219  and  _220
REMARK   85  A    between atoms: _219  and  _222
REMARK   86  A    between atoms: _222  and  _223
REMARK   87  A    between atoms: _223  and  _224
REMARK   88  A    between atoms: _224  and  _225
REMARK   89  A    between atoms: _234  and  _236
REMARK   90  A    between atoms: _236  and  _237
REMARK   91  A    between atoms: _236  and  _239
REMARK   92  A    between atoms: _239  and  _240
REMARK   93  A    between atoms: _240  and  _241
REMARK   94  A    between atoms: _244  and  _246
REMARK   95  A    between atoms: _246  and  _247
REMARK   96  A    between atoms: _246  and  _249
REMARK   97  A    between atoms: _249  and  _250
REMARK   98  A    between atoms: _250  and  _251
REMARK   99  A    between atoms: _254  and  _256
REMARK  100  A    between atoms: _256  and  _257
REMARK  101  A    between atoms: _256  and  _259
REMARK  102  A    between atoms: _259  and  _260
REMARK  103  A    between atoms: _263  and  _265
REMARK  104  A    between atoms: _265  and  _266
REMARK  105  A    between atoms: _265  and  _268
REMARK  106  A    between atoms: _268  and  _269
REMARK  107  A    between atoms: _274  and  _275
REMARK  108  A    between atoms: _277  and  _279
REMARK  109  A    between atoms: _279  and  _280
REMARK  110  A    between atoms: _279  and  _282
REMARK  111  A    between atoms: _282  and  _283
REMARK  112  A    between atoms: _283  and  _284
REMARK  113  A    between atoms: _284  and  _285
REMARK                            x       y       z     vdW  Elec       q    Type
REMARK                         _______ _______ _______ _____ _____    ______ ____
ROOT
ATOM      1  NE  ARG A   1      16.388  24.499  12.452  0.00  0.00    -0.265 N 
ATOM      2  CZ  ARG A   1      17.557  24.722  13.045  0.00  0.00    +0.342 C 
ATOM      3  NH2 ARG A   1      17.708  24.533  14.350  0.00  0.00    -0.292 N 
ATOM      4 HH21 ARG A   1      16.905  24.206  14.924  0.00  0.00    +0.255 HD
ATOM      5 HH22 ARG A   1      18.629  24.712  14.798  0.00  0.00    +0.255 HD
ATOM      6  NH1 ARG A   1      18.590  25.138  12.328  0.00  0.00    -0.292 N 
ATOM      7 HH11 ARG A   1      19.506  25.313  12.789  0.00  0.00    +0.255 HD
ATOM      8 HH12 ARG A   1      18.485  25.289  11.304  0.00  0.00    +0.255 HD
ATOM      9  HE  ARG A   1      16.328  24.656  11.426  0.00  0.00    +0.259 HD
ENDROOT
BRANCH   1  10
ATOM     10  CD  ARG A   1      15.181  24.048  13.142  0.00  0.00    +0.174 C 
BRANCH  10  11
ATOM     11  CG  ARG A   1      13.985  24.029  12.198  0.00  0.00    +0.045 C 
BRANCH  11  12
ATOM     12  CB  ARG A   1      12.670  24.000  12.942  0.00  0.00    +0.029 C 
BRANCH  12  13
ATOM     13  CA  ARG A   1      11.462  23.920  12.021  0.00  0.00    +0.133 C 
BRANCH  13  14
ATOM     14  N   ARG A   1      11.310  25.167  11.271  0.00  0.00    -0.239 NA
ATOM     15  H   ARG A   1      11.178  26.054  11.798  0.00  0.00    +0.142 HD
ENDBRANCH  13  14
BRANCH  13  16
ATOM     16  C   ARG A   1      10.194  23.661  12.822  0.00  0.00    +0.224 C 
ATOM     17  O   ARG A   1       9.711  22.521  12.891  0.00  0.00    -0.287 OA
ENDBRANCH  13  16
ENDBRANCH  12  13
ENDBRANCH  11  12
ENDBRANCH  10  11
ENDBRANCH   1  10
TORSDOF 6
REMARK  Name = ../refined-set-2016/3ap4/3ap4_pocket.pdb
REMARK  113 active torsions:
REMARK  status: ('A' for Active; 'I' for Inactive)
REMARK    1  A    between atoms: _1  and  _3
REMARK    2  A    between atoms: _3  and  _4
REMARK    3  A    between atoms: _3  and  _6
REMARK    4  A    between atoms: _6  and  _7
REMARK    5  A    between atoms: _7  and  _8
REMARK    6  A    between atoms: _8  and  _9
REMARK    7  A    between atoms: _18  and  _20
REMARK    8  A    between atoms: _20  and  _21
REMARK    9  A    between atoms: _20  and  _23
REMARK   10  A    between atoms: _23  and  _24
REMARK   11  A    between atoms: _30  and  _32
REMARK   12  A    between atoms: _32  and  _33
REMARK   13  A    between atoms: _32  and  _35
REMARK   14  A    between atoms: _35  and  _36
REMARK   15  A    between atoms: _36  and  _37
REMARK   16  A    between atoms: _42  and  _44
REMARK   17  A    between atoms: _44  and  _45
REMARK   18  A    between atoms: _44  and  _47
REMARK   19  A    between atoms: _47  and  _48
REMARK   20  A    between atoms: _51  and  _53
REMARK   21  A    between atoms: _53  and  _54
REMARK   22  A    between atoms: _53  and  _56
REMARK   23  A    between atoms: _56  and  _57
REMARK   24  A    between atoms: _57  and  _58
REMARK   25  A    between atoms: _58  and  _59
REMARK   26  A    between atoms: _68  and  _70
REMARK   27  A    between atoms: _70  and  _71
REMARK   28  A    between atoms: _70  and  _73
REMARK   29  A    between atoms: _73  and  _74
REMARK   30  A    between atoms: _79  and  _81
REMARK   31  A    between atoms: _81  and  _82
REMARK   32  A    between atoms: _81  and  _84
REMARK   33  A    between atoms: _84  and  _85
REMARK   34  A    between atoms: _91  and  _93
REMARK   35  A    between atoms: _93  and  _94
REMARK   36  A    between atoms: _93  and  _96
REMARK   37  A    between atoms: _96  and  _97
REMARK   38  A    between atoms: _103  and  _104
REMARK   39  A    between atoms: _109  and  _111
REMARK   40  A    between atoms: _111  and  _112
REMARK   41  A    between atoms: _111  and  _114
REMARK   42  A    between atoms: _114  and  _115
REMARK   43  A    between atoms: _115  and  _116
REMARK   44  A    between atoms: _116  and  _117
REMARK   45  A    between atoms: _126  and  _128
REMARK   46  A    between atoms: _128  and  _129
REMARK   47  A    between atoms: _128  and  _131
REMARK   48  A    between atoms: _131  and  _132
REMARK   49  A    between atoms: _132  and  _133
REMARK   50  A    between atoms: _133  and  _134
REMARK   51  A    between atoms: _134  and  _135
REMARK   52  A    between atoms: _139  and  _141
REMARK   53  A    between atoms: _141  and  _142
REMARK   54  A    between atoms: _141  and  _144
REMARK   55  A    between atoms: _147  and  _149
REMARK   56  A    between atoms: _149  and  _150
REMARK   57  A    between atoms: _149  and  _152
REMARK   58  A    between atoms: _154  and  _156
REMARK   59  A    between atoms: _156  and  _157
REMARK   60  A    between atoms: _156  and  _159
REMARK   61  A    between atoms: _159  and  _160
REMARK   62  A    between atoms: _165  and  _167
REMARK   63  A    between atoms: _167  and  _168
REMARK   64  A    between atoms: _167  and  _170
REMARK   65  A    between atoms: _170  and  _171
REMARK   66  A    between atoms: _174  and  _176
REMARK   67  A    between atoms: _176  and  _177
REMARK   68  A    between atoms: _176  and  _179
REMARK   69  A    between atoms: _179  and  _180
REMARK   70  A    between atoms: _183  and  _185
REMARK   71  A    between atoms: _185  and  _186
REMARK   72  A    between atoms: _185  and  _188
REMARK   73  A    between atoms: _188  and  _189
REMARK   74  A    between atoms: _189  and  _190
REMARK   75  A    between atoms: _190  and  _191
REMARK   76  A    between atoms: _191  and  _192
REMARK   77  A    between atoms: _196  and  _198
REMARK   78  A    between atoms: _198  and  _199
REMARK   79  A    between atoms: _198  and  _201
REMARK   80  A    between atoms: _201  and  _202
REMARK   81  A    between atoms: _212  and  _214
REMARK   82  A    between atoms: _214  and  _215
REMARK   83  A    between atoms: _217  and  _219
REMARK   84  A    between atoms: _219  and  _220
REMARK   85  A    between atoms: _219  and  _222
REMARK   86  A    between atoms: _222  and  _223
REMARK   87  A    between atoms: _223  and  _224
REMARK   88  A    between atoms: _224  and  _225
REMARK   89  A    between atoms: _234  and  _236
REMARK   90  A    between atoms: _236  and  _237
REMARK   91  A    between atoms: _236  and  _239
REMARK   92  A    between atoms: _239  and  _240
REMARK   93  A    between atoms: _240  and  _241
REMARK   94  A    between atoms: _244  and  _246
REMARK   95  A    between atoms: _246  and  _247
REMARK   96  A    between atoms: _246  and  _249
REMARK   97  A    between atoms: _249  and  _250
REMARK   98  A    between atoms: _250  and  _251
REMARK   99  A    between atoms: _254  and  _256
REMARK  100  A    between atoms: _256  and  _257
REMARK  101  A    between atoms: _256  and  _259
REMARK  102  A    between atoms: _259  and  _260
REMARK  103  A    between atoms: _263  and  _265
REMARK  104  A    between atoms: _265  and  _266
REMARK  105  A    between atoms: _265  and  _268
REMARK  106  A    between atoms: _268  and  _269
REMARK  107  A    between atoms: _274  and  _275
REMARK  108  A    between atoms: _277  and  _279
REMARK  109  A    between atoms: _279  and  _280
REMARK  110  A    between atoms: _279  and  _282
REMARK  111  A    between atoms: _282  and  _283
REMARK  112  A    between atoms: _283  and  _284
REMARK  113  A    between atoms: _284  and  _285
REMARK                            x       y       z     vdW  Elec       q    Type
REMARK                         _______ _______ _______ _____ _____    ______ ____
ROOT
ATOM      1  O   HOH     1      25.033  24.188  17.026  0.00  0.00    +0.000 OA
ENDROOT
TORSDOF 0
REMARK  Name = ../refined-set-2016/3ap4/3ap4_pocket.pdb
REMARK  113 active torsions:
REMARK  status: ('A' for Active; 'I' for Inactive)
REMARK    1  A    between atoms: _1  and  _3
REMARK    2  A    between atoms: _3  and  _4
REMARK    3  A    between atoms: _3  and  _6
REMARK    4  A    between atoms: _6  and  _7
REMARK    5  A    between atoms: _7  and  _8
REMARK    6  A    between atoms: _8  and  _9
REMARK    7  A    between atoms: _18  and  _20
REMARK    8  A    between atoms: _20  and  _21
REMARK    9  A    between atoms: _20  and  _23
REMARK   10  A    between atoms: _23  and  _24
REMARK   11  A    between atoms: _30  and  _32
REMARK   12  A    between atoms: _32  and  _33
REMARK   13  A    between atoms: _32  and  _35
REMARK   14  A    between atoms: _35  and  _36
REMARK   15  A    between atoms: _36  and  _37
REMARK   16  A    between atoms: _42  and  _44
REMARK   17  A    between atoms: _44  and  _45
REMARK   18  A    between atoms: _44  and  _47
REMARK   19  A    between atoms: _47  and  _48
REMARK   20  A    between atoms: _51  and  _53
REMARK   21  A    between atoms: _53  and  _54
REMARK   22  A    between atoms: _53  and  _56
REMARK   23  A    between atoms: _56  and  _57
REMARK   24  A    between atoms: _57  and  _58
REMARK   25  A    between atoms: _58  and  _59
REMARK   26  A    between atoms: _68  and  _70
REMARK   27  A    between atoms: _70  and  _71
REMARK   28  A    between atoms: _70  and  _73
REMARK   29  A    between atoms: _73  and  _74
REMARK   30  A    between atoms: _79  and  _81
REMARK   31  A    between atoms: _81  and  _82
REMARK   32  A    between atoms: _81  and  _84
REMARK   33  A    between atoms: _84  and  _85
REMARK   34  A    between atoms: _91  and  _93
REMARK   35  A    between atoms: _93  and  _94
REMARK   36  A    between atoms: _93  and  _96
REMARK   37  A    between atoms: _96  and  _97
REMARK   38  A    between atoms: _103  and  _104
REMARK   39  A    between atoms: _109  and  _111
REMARK   40  A    between atoms: _111  and  _112
REMARK   41  A    between atoms: _111  and  _114
REMARK   42  A    between atoms: _114  and  _115
REMARK   43  A    between atoms: _115  and  _116
REMARK   44  A    between atoms: _116  and  _117
REMARK   45  A    between atoms: _126  and  _128
REMARK   46  A    between atoms: _128  and  _129
REMARK   47  A    between atoms: _128  and  _131
REMARK   48  A    between atoms: _131  and  _132
REMARK   49  A    between atoms: _132  and  _133
REMARK   50  A    between atoms: _133  and  _134
REMARK   51  A    between atoms: _134  and  _135
REMARK   52  A    between atoms: _139  and  _141
REMARK   53  A    between atoms: _141  and  _142
REMARK   54  A    between atoms: _141  and  _144
REMARK   55  A    between atoms: _147  and  _149
REMARK   56  A    between atoms: _149  and  _150
REMARK   57  A    between atoms: _149  and  _152
REMARK   58  A    between atoms: _154  and  _156
REMARK   59  A    between atoms: _156  and  _157
REMARK   60  A    between atoms: _156  and  _159
REMARK   61  A    between atoms: _159  and  _160
REMARK   62  A    between atoms: _165  and  _167
REMARK   63  A    between atoms: _167  and  _168
REMARK   64  A    between atoms: _167  and  _170
REMARK   65  A    between atoms: _170  and  _171
REMARK   66  A    between atoms: _174  and  _176
REMARK   67  A    between atoms: _176  and  _177
REMARK   68  A    between atoms: _176  and  _179
REMARK   69  A    between atoms: _179  and  _180
REMARK   70  A    between atoms: _183  and  _185
REMARK   71  A    between atoms: _185  and  _186
REMARK   72  A    between atoms: _185  and  _188
REMARK   73  A    between atoms: _188  and  _189
REMARK   74  A    between atoms: _189  and  _190
REMARK   75  A    between atoms: _190  and  _191
REMARK   76  A    between atoms: _191  and  _192
REMARK   77  A    between atoms: _196  and  _198
REMARK   78  A    between atoms: _198  and  _199
REMARK   79  A    between atoms: _198  and  _201
REMARK   80  A    between atoms: _201  and  _202
REMARK   81  A    between atoms: _212  and  _214
REMARK   82  A    between atoms: _214  and  _215
REMARK   83  A    between atoms: _217  and  _219
REMARK   84  A    between atoms: _219  and  _220
REMARK   85  A    between atoms: _219  and  _222
REMARK   86  A    between atoms: _222  and  _223
REMARK   87  A    between atoms: _223  and  _224
REMARK   88  A    between atoms: _224  and  _225
REMARK   89  A    between atoms: _234  and  _236
REMARK   90  A    between atoms: _236  and  _237
REMARK   91  A    between atoms: _236  and  _239
REMARK   92  A    between atoms: _239  and  _240
REMARK   93  A    between atoms: _240  and  _241
REMARK   94  A    between atoms: _244  and  _246
REMARK   95  A    between atoms: _246  and  _247
REMARK   96  A    between atoms: _246  and  _249
REMARK   97  A    between atoms: _249  and  _250
REMARK   98  A    between atoms: _250  and  _251
REMARK   99  A    between atoms: _254  and  _256
REMARK  100  A    between atoms: _256  and  _257
REMARK  101  A    between atoms: _256  and  _259
REMARK  102  A    between atoms: _259  and  _260
REMARK  103  A    between atoms: _263  and  _265
REMARK  104  A    between atoms: _265  and  _266
REMARK  105  A    between atoms: _265  and  _268
REMARK  106  A    between atoms: _268  and  _269
REMARK  107  A    between atoms: _274  and  _275
REMARK  108  A    between atoms: _277  and  _279
REMARK  109  A    between atoms: _279  and  _280
REMARK  110  A    between atoms: _279  and  _282
REMARK  111  A    between atoms: _282  and  _283
REMARK  112  A    between atoms: _283  and  _284
REMARK  113  A    between atoms: _284  and  _285
REMARK                            x       y       z     vdW  Elec       q    Type
REMARK                         _______ _______ _______ _____ _____    ______ ____
ROOT
ATOM      1  O   HOH     1      18.034  32.881  24.789  0.00  0.00    +0.000 OA
ENDROOT
TORSDOF 0
REMARK  Name = ../refined-set-2016/3ap4/3ap4_pocket.pdb
REMARK  113 active torsions:
REMARK  status: ('A' for Active; 'I' for Inactive)
REMARK    1  A    between atoms: _1  and  _3
REMARK    2  A    between atoms: _3  and  _4
REMARK    3  A    between atoms: _3  and  _6
REMARK    4  A    between atoms: _6  and  _7
REMARK    5  A    between atoms: _7  and  _8
REMARK    6  A    between atoms: _8  and  _9
REMARK    7  A    between atoms: _18  and  _20
REMARK    8  A    between atoms: _20  and  _21
REMARK    9  A    between atoms: _20  and  _23
REMARK   10  A    between atoms: _23  and  _24
REMARK   11  A    between atoms: _30  and  _32
REMARK   12  A    between atoms: _32  and  _33
REMARK   13  A    between atoms: _32  and  _35
REMARK   14  A    between atoms: _35  and  _36
REMARK   15  A    between atoms: _36  and  _37
REMARK   16  A    between atoms: _42  and  _44
REMARK   17  A    between atoms: _44  and  _45
REMARK   18  A    between atoms: _44  and  _47
REMARK   19  A    between atoms: _47  and  _48
REMARK   20  A    between atoms: _51  and  _53
REMARK   21  A    between atoms: _53  and  _54
REMARK   22  A    between atoms: _53  and  _56
REMARK   23  A    between atoms: _56  and  _57
REMARK   24  A    between atoms: _57  and  _58
REMARK   25  A    between atoms: _58  and  _59
REMARK   26  A    between atoms: _68  and  _70
REMARK   27  A    between atoms: _70  and  _71
REMARK   28  A    between atoms: _70  and  _73
REMARK   29  A    between atoms: _73  and  _74
REMARK   30  A    between atoms: _79  and  _81
REMARK   31  A    between atoms: _81  and  _82
REMARK   32  A    between atoms: _81  and  _84
REMARK   33  A    between atoms: _84  and  _85
REMARK   34  A    between atoms: _91  and  _93
REMARK   35  A    between atoms: _93  and  _94
REMARK   36  A    between atoms: _93  and  _96
REMARK   37  A    between atoms: _96  and  _97
REMARK   38  A    between atoms: _103  and  _104
REMARK   39  A    between atoms: _109  and  _111
REMARK   40  A    between atoms: _111  and  _112
REMARK   41  A    between atoms: _111  and  _114
REMARK   42  A    between atoms: _114  and  _115
REMARK   43  A    between atoms: _115  and  _116
REMARK   44  A    between atoms: _116  and  _117
REMARK   45  A    between atoms: _126  and  _128
REMARK   46  A    between atoms: _128  and  _129
REMARK   47  A    between atoms: _128  and  _131
REMARK   48  A    between atoms: _131  and  _132
REMARK   49  A    between atoms: _132  and  _133
REMARK   50  A    between atoms: _133  and  _134
REMARK   51  A    between atoms: _134  and  _135
REMARK   52  A    between atoms: _139  and  _141
REMARK   53  A    between atoms: _141  and  _142
REMARK   54  A    between atoms: _141  and  _144
REMARK   55  A    between atoms: _147  and  _149
REMARK   56  A    between atoms: _149  and  _150
REMARK   57  A    between atoms: _149  and  _152
REMARK   58  A    between atoms: _154  and  _156
REMARK   59  A    between atoms: _156  and  _157
REMARK   60  A    between atoms: _156  and  _159
REMARK   61  A    between atoms: _159  and  _160
REMARK   62  A    between atoms: _165  and  _167
REMARK   63  A    between atoms: _167  and  _168
REMARK   64  A    between atoms: _167  and  _170
REMARK   65  A    between atoms: _170  and  _171
REMARK   66  A    between atoms: _174  and  _176
REMARK   67  A    between atoms: _176  and  _177
REMARK   68  A    between atoms: _176  and  _179
REMARK   69  A    between atoms: _179  and  _180
REMARK   70  A    between atoms: _183  and  _185
REMARK   71  A    between atoms: _185  and  _186
REMARK   72  A    between atoms: _185  and  _188
REMARK   73  A    between atoms: _188  and  _189
REMARK   74  A    between atoms: _189  and  _190
REMARK   75  A    between atoms: _190  and  _191
REMARK   76  A    between atoms: _191  and  _192
REMARK   77  A    between atoms: _196  and  _198
REMARK   78  A    between atoms: _198  and  _199
REMARK   79  A    between atoms: _198  and  _201
REMARK   80  A    between atoms: _201  and  _202
REMARK   81  A    between atoms: _212  and  _214
REMARK   82  A    between atoms: _214  and  _215
REMARK   83  A    between atoms: _217  and  _219
REMARK   84  A    between atoms: _219  and  _220
REMARK   85  A    between atoms: _219  and  _222
REMARK   86  A    between atoms: _222  and  _223
REMARK   87  A    between atoms: _223  and  _224
REMARK   88  A    between atoms: _224  and  _225
REMARK   89  A    between atoms: _234  and  _236
REMARK   90  A    between atoms: _236  and  _237
REMARK   91  A    between atoms: _236  and  _239
REMARK   92  A    between atoms: _239  and  _240
REMARK   93  A    between atoms: _240  and  _241
REMARK   94  A    between atoms: _244  and  _246
REMARK   95  A    between atoms: _246  and  _247
REMARK   96  A    between atoms: _246  and  _249
REMARK   97  A    between atoms: _249  and  _250
REMARK   98  A    between atoms: _250  and  _251
REMARK   99  A    between atoms: _254  and  _256
REMARK  100  A    between atoms: _256  and  _257
REMARK  101  A    between atoms: _256  and  _259
REMARK  102  A    between atoms: _259  and  _260
REMARK  103  A    between atoms: _263  and  _265
REMARK  104  A    between atoms: _265  and  _266
REMARK  105  A    between atoms: _265  and  _268
REMARK  106  A    between atoms: _268  and  _269
REMARK  107  A    between atoms: _274  and  _275
REMARK  108  A    between atoms: _277  and  _279
REMARK  109  A    between atoms: _279  and  _280
REMARK  110  A    between atoms: _279  and  _282
REMARK  111  A    between atoms: _282  and  _283
REMARK  112  A    between atoms: _283  and  _284
REMARK  113  A    between atoms: _284  and  _285
REMARK                            x       y       z     vdW  Elec       q    Type
REMARK                         _______ _______ _______ _____ _____    ______ ____
ROOT
ATOM      1  O   HOH     1      13.146  33.752  24.261  0.00  0.00    +0.000 OA
ENDROOT
TORSDOF 0
REMARK  Name = ../refined-set-2016/3ap4/3ap4_pocket.pdb
REMARK  113 active torsions:
REMARK  status: ('A' for Active; 'I' for Inactive)
REMARK    1  A    between atoms: _1  and  _3
REMARK    2  A    between atoms: _3  and  _4
REMARK    3  A    between atoms: _3  and  _6
REMARK    4  A    between atoms: _6  and  _7
REMARK    5  A    between atoms: _7  and  _8
REMARK    6  A    between atoms: _8  and  _9
REMARK    7  A    between atoms: _18  and  _20
REMARK    8  A    between atoms: _20  and  _21
REMARK    9  A    between atoms: _20  and  _23
REMARK   10  A    between atoms: _23  and  _24
REMARK   11  A    between atoms: _30  and  _32
REMARK   12  A    between atoms: _32  and  _33
REMARK   13  A    between atoms: _32  and  _35
REMARK   14  A    between atoms: _35  and  _36
REMARK   15  A    between atoms: _36  and  _37
REMARK   16  A    between atoms: _42  and  _44
REMARK   17  A    between atoms: _44  and  _45
REMARK   18  A    between atoms: _44  and  _47
REMARK   19  A    between atoms: _47  and  _48
REMARK   20  A    between atoms: _51  and  _53
REMARK   21  A    between atoms: _53  and  _54
REMARK   22  A    between atoms: _53  and  _56
REMARK   23  A    between atoms: _56  and  _57
REMARK   24  A    between atoms: _57  and  _58
REMARK   25  A    between atoms: _58  and  _59
REMARK   26  A    between atoms: _68  and  _70
REMARK   27  A    between atoms: _70  and  _71
REMARK   28  A    between atoms: _70  and  _73
REMARK   29  A    between atoms: _73  and  _74
REMARK   30  A    between atoms: _79  and  _81
REMARK   31  A    between atoms: _81  and  _82
REMARK   32  A    between atoms: _81  and  _84
REMARK   33  A    between atoms: _84  and  _85
REMARK   34  A    between atoms: _91  and  _93
REMARK   35  A    between atoms: _93  and  _94
REMARK   36  A    between atoms: _93  and  _96
REMARK   37  A    between atoms: _96  and  _97
REMARK   38  A    between atoms: _103  and  _104
REMARK   39  A    between atoms: _109  and  _111
REMARK   40  A    between atoms: _111  and  _112
REMARK   41  A    between atoms: _111  and  _114
REMARK   42  A    between atoms: _114  and  _115
REMARK   43  A    between atoms: _115  and  _116
REMARK   44  A    between atoms: _116  and  _117
REMARK   45  A    between atoms: _126  and  _128
REMARK   46  A    between atoms: _128  and  _129
REMARK   47  A    between atoms: _128  and  _131
REMARK   48  A    between atoms: _131  and  _132
REMARK   49  A    between atoms: _132  and  _133
REMARK   50  A    between atoms: _133  and  _134
REMARK   51  A    between atoms: _134  and  _135
REMARK   52  A    between atoms: _139  and  _141
REMARK   53  A    between atoms: _141  and  _142
REMARK   54  A    between atoms: _141  and  _144
REMARK   55  A    between atoms: _147  and  _149
REMARK   56  A    between atoms: _149  and  _150
REMARK   57  A    between atoms: _149  and  _152
REMARK   58  A    between atoms: _154  and  _156
REMARK   59  A    between atoms: _156  and  _157
REMARK   60  A    between atoms: _156  and  _159
REMARK   61  A    between atoms: _159  and  _160
REMARK   62  A    between atoms: _165  and  _167
REMARK   63  A    between atoms: _167  and  _168
REMARK   64  A    between atoms: _167  and  _170
REMARK   65  A    between atoms: _170  and  _171
REMARK   66  A    between atoms: _174  and  _176
REMARK   67  A    between atoms: _176  and  _177
REMARK   68  A    between atoms: _176  and  _179
REMARK   69  A    between atoms: _179  and  _180
REMARK   70  A    between atoms: _183  and  _185
REMARK   71  A    between atoms: _185  and  _186
REMARK   72  A    between atoms: _185  and  _188
REMARK   73  A    between atoms: _188  and  _189
REMARK   74  A    between atoms: _189  and  _190
REMARK   75  A    between atoms: _190  and  _191
REMARK   76  A    between atoms: _191  and  _192
REMARK   77  A    between atoms: _196  and  _198
REMARK   78  A    between atoms: _198  and  _199
REMARK   79  A    between atoms: _198  and  _201
REMARK   80  A    between atoms: _201  and  _202
REMARK   81  A    between atoms: _212  and  _214
REMARK   82  A    between atoms: _214  and  _215
REMARK   83  A    between atoms: _217  and  _219
REMARK   84  A    between atoms: _219  and  _220
REMARK   85  A    between atoms: _219  and  _222
REMARK   86  A    between atoms: _222  and  _223
REMARK   87  A    between atoms: _223  and  _224
REMARK   88  A    between atoms: _224  and  _225
REMARK   89  A    between atoms: _234  and  _236
REMARK   90  A    between atoms: _236  and  _237
REMARK   91  A    between atoms: _236  and  _239
REMARK   92  A    between atoms: _239  and  _240
REMARK   93  A    between atoms: _240  and  _241
REMARK   94  A    between atoms: _244  and  _246
REMARK   95  A    between atoms: _246  and  _247
REMARK   96  A    between atoms: _246  and  _249
REMARK   97  A    between atoms: _249  and  _250
REMARK   98  A    between atoms: _250  and  _251
REMARK   99  A    between atoms: _254  and  _256
REMARK  100  A    between atoms: _256  and  _257
REMARK  101  A    between atoms: _256  and  _259
REMARK  102  A    between atoms: _259  and  _260
REMARK  103  A    between atoms: _263  and  _265
REMARK  104  A    between atoms: _265  and  _266
REMARK  105  A    between atoms: _265  and  _268
REMARK  106  A    between atoms: _268  and  _269
REMARK  107  A    between atoms: _274  and  _275
REMARK  108  A    between atoms: _277  and  _279
REMARK  109  A    between atoms: _279  and  _280
REMARK  110  A    between atoms: _279  and  _282
REMARK  111  A    between atoms: _282  and  _283
REMARK  112  A    between atoms: _283  and  _284
REMARK  113  A    between atoms: _284  and  _285
REMARK                            x       y       z     vdW  Elec       q    Type
REMARK                         _______ _______ _______ _____ _____    ______ ____
ROOT
ATOM      1  O   HOH     1      20.674  38.210  23.433  0.00  0.00    +0.000 OA
ENDROOT
TORSDOF 0
REMARK  Name = ../refined-set-2016/3ap4/3ap4_pocket.pdb
REMARK  113 active torsions:
REMARK  status: ('A' for Active; 'I' for Inactive)
REMARK    1  A    between atoms: _1  and  _3
REMARK    2  A    between atoms: _3  and  _4
REMARK    3  A    between atoms: _3  and  _6
REMARK    4  A    between atoms: _6  and  _7
REMARK    5  A    between atoms: _7  and  _8
REMARK    6  A    between atoms: _8  and  _9
REMARK    7  A    between atoms: _18  and  _20
REMARK    8  A    between atoms: _20  and  _21
REMARK    9  A    between atoms: _20  and  _23
REMARK   10  A    between atoms: _23  and  _24
REMARK   11  A    between atoms: _30  and  _32
REMARK   12  A    between atoms: _32  and  _33
REMARK   13  A    between atoms: _32  and  _35
REMARK   14  A    between atoms: _35  and  _36
REMARK   15  A    between atoms: _36  and  _37
REMARK   16  A    between atoms: _42  and  _44
REMARK   17  A    between atoms: _44  and  _45
REMARK   18  A    between atoms: _44  and  _47
REMARK   19  A    between atoms: _47  and  _48
REMARK   20  A    between atoms: _51  and  _53
REMARK   21  A    between atoms: _53  and  _54
REMARK   22  A    between atoms: _53  and  _56
REMARK   23  A    between atoms: _56  and  _57
REMARK   24  A    between atoms: _57  and  _58
REMARK   25  A    between atoms: _58  and  _59
REMARK   26  A    between atoms: _68  and  _70
REMARK   27  A    between atoms: _70  and  _71
REMARK   28  A    between atoms: _70  and  _73
REMARK   29  A    between atoms: _73  and  _74
REMARK   30  A    between atoms: _79  and  _81
REMARK   31  A    between atoms: _81  and  _82
REMARK   32  A    between atoms: _81  and  _84
REMARK   33  A    between atoms: _84  and  _85
REMARK   34  A    between atoms: _91  and  _93
REMARK   35  A    between atoms: _93  and  _94
REMARK   36  A    between atoms: _93  and  _96
REMARK   37  A    between atoms: _96  and  _97
REMARK   38  A    between atoms: _103  and  _104
REMARK   39  A    between atoms: _109  and  _111
REMARK   40  A    between atoms: _111  and  _112
REMARK   41  A    between atoms: _111  and  _114
REMARK   42  A    between atoms: _114  and  _115
REMARK   43  A    between atoms: _115  and  _116
REMARK   44  A    between atoms: _116  and  _117
REMARK   45  A    between atoms: _126  and  _128
REMARK   46  A    between atoms: _128  and  _129
REMARK   47  A    between atoms: _128  and  _131
REMARK   48  A    between atoms: _131  and  _132
REMARK   49  A    between atoms: _132  and  _133
REMARK   50  A    between atoms: _133  and  _134
REMARK   51  A    between atoms: _134  and  _135
REMARK   52  A    between atoms: _139  and  _141
REMARK   53  A    between atoms: _141  and  _142
REMARK   54  A    between atoms: _141  and  _144
REMARK   55  A    between atoms: _147  and  _149
REMARK   56  A    between atoms: _149  and  _150
REMARK   57  A    between atoms: _149  and  _152
REMARK   58  A    between atoms: _154  and  _156
REMARK   59  A    between atoms: _156  and  _157
REMARK   60  A    between atoms: _156  and  _159
REMARK   61  A    between atoms: _159  and  _160
REMARK   62  A    between atoms: _165  and  _167
REMARK   63  A    between atoms: _167  and  _168
REMARK   64  A    between atoms: _167  and  _170
REMARK   65  A    between atoms: _170  and  _171
REMARK   66  A    between atoms: _174  and  _176
REMARK   67  A    between atoms: _176  and  _177
REMARK   68  A    between atoms: _176  and  _179
REMARK   69  A    between atoms: _179  and  _180
REMARK   70  A    between atoms: _183  and  _185
REMARK   71  A    between atoms: _185  and  _186
REMARK   72  A    between atoms: _185  and  _188
REMARK   73  A    between atoms: _188  and  _189
REMARK   74  A    between atoms: _189  and  _190
REMARK   75  A    between atoms: _190  and  _191
REMARK   76  A    between atoms: _191  and  _192
REMARK   77  A    between atoms: _196  and  _198
REMARK   78  A    between atoms: _198  and  _199
REMARK   79  A    between atoms: _198  and  _201
REMARK   80  A    between atoms: _201  and  _202
REMARK   81  A    between atoms: _212  and  _214
REMARK   82  A    between atoms: _214  and  _215
REMARK   83  A    between atoms: _217  and  _219
REMARK   84  A    between atoms: _219  and  _220
REMARK   85  A    between atoms: _219  and  _222
REMARK   86  A    between atoms: _222  and  _223
REMARK   87  A    between atoms: _223  and  _224
REMARK   88  A    between atoms: _224  and  _225
REMARK   89  A    between atoms: _234  and  _236
REMARK   90  A    between atoms: _236  and  _237
REMARK   91  A    between atoms: _236  and  _239
REMARK   92  A    between atoms: _239  and  _240
REMARK   93  A    between atoms: _240  and  _241
REMARK   94  A    between atoms: _244  and  _246
REMARK   95  A    between atoms: _246  and  _247
REMARK   96  A    between atoms: _246  and  _249
REMARK   97  A    between atoms: _249  and  _250
REMARK   98  A    between atoms: _250  and  _251
REMARK   99  A    between atoms: _254  and  _256
REMARK  100  A    between atoms: _256  and  _257
REMARK  101  A    between atoms: _256  and  _259
REMARK  102  A    between atoms: _259  and  _260
REMARK  103  A    between atoms: _263  and  _265
REMARK  104  A    between atoms: _265  and  _266
REMARK  105  A    between atoms: _265  and  _268
REMARK  106  A    between atoms: _268  and  _269
REMARK  107  A    between atoms: _274  and  _275
REMARK  108  A    between atoms: _277  and  _279
REMARK  109  A    between atoms: _279  and  _280
REMARK  110  A    between atoms: _279  and  _282
REMARK  111  A    between atoms: _282  and  _283
REMARK  112  A    between atoms: _283  and  _284
REMARK  113  A    between atoms: _284  and  _285
REMARK                            x       y       z     vdW  Elec       q    Type
REMARK                         _______ _______ _______ _____ _____    ______ ____
ROOT
ATOM      1  O   HOH     1      29.732  31.732  17.579  0.00  0.00    +0.000 OA
ENDROOT
TORSDOF 0
REMARK  Name = ../refined-set-2016/3ap4/3ap4_pocket.pdb
REMARK  113 active torsions:
REMARK  status: ('A' for Active; 'I' for Inactive)
REMARK    1  A    between atoms: _1  and  _3
REMARK    2  A    between atoms: _3  and  _4
REMARK    3  A    between atoms: _3  and  _6
REMARK    4  A    between atoms: _6  and  _7
REMARK    5  A    between atoms: _7  and  _8
REMARK    6  A    between atoms: _8  and  _9
REMARK    7  A    between atoms: _18  and  _20
REMARK    8  A    between atoms: _20  and  _21
REMARK    9  A    between atoms: _20  and  _23
REMARK   10  A    between atoms: _23  and  _24
REMARK   11  A    between atoms: _30  and  _32
REMARK   12  A    between atoms: _32  and  _33
REMARK   13  A    between atoms: _32  and  _35
REMARK   14  A    between atoms: _35  and  _36
REMARK   15  A    between atoms: _36  and  _37
REMARK   16  A    between atoms: _42  and  _44
REMARK   17  A    between atoms: _44  and  _45
REMARK   18  A    between atoms: _44  and  _47
REMARK   19  A    between atoms: _47  and  _48
REMARK   20  A    between atoms: _51  and  _53
REMARK   21  A    between atoms: _53  and  _54
REMARK   22  A    between atoms: _53  and  _56
REMARK   23  A    between atoms: _56  and  _57
REMARK   24  A    between atoms: _57  and  _58
REMARK   25  A    between atoms: _58  and  _59
REMARK   26  A    between atoms: _68  and  _70
REMARK   27  A    between atoms: _70  and  _71
REMARK   28  A    between atoms: _70  and  _73
REMARK   29  A    between atoms: _73  and  _74
REMARK   30  A    between atoms: _79  and  _81
REMARK   31  A    between atoms: _81  and  _82
REMARK   32  A    between atoms: _81  and  _84
REMARK   33  A    between atoms: _84  and  _85
REMARK   34  A    between atoms: _91  and  _93
REMARK   35  A    between atoms: _93  and  _94
REMARK   36  A    between atoms: _93  and  _96
REMARK   37  A    between atoms: _96  and  _97
REMARK   38  A    between atoms: _103  and  _104
REMARK   39  A    between atoms: _109  and  _111
REMARK   40  A    between atoms: _111  and  _112
REMARK   41  A    between atoms: _111  and  _114
REMARK   42  A    between atoms: _114  and  _115
REMARK   43  A    between atoms: _115  and  _116
REMARK   44  A    between atoms: _116  and  _117
REMARK   45  A    between atoms: _126  and  _128
REMARK   46  A    between atoms: _128  and  _129
REMARK   47  A    between atoms: _128  and  _131
REMARK   48  A    between atoms: _131  and  _132
REMARK   49  A    between atoms: _132  and  _133
REMARK   50  A    between atoms: _133  and  _134
REMARK   51  A    between atoms: _134  and  _135
REMARK   52  A    between atoms: _139  and  _141
REMARK   53  A    between atoms: _141  and  _142
REMARK   54  A    between atoms: _141  and  _144
REMARK   55  A    between atoms: _147  and  _149
REMARK   56  A    between atoms: _149  and  _150
REMARK   57  A    between atoms: _149  and  _152
REMARK   58  A    between atoms: _154  and  _156
REMARK   59  A    between atoms: _156  and  _157
REMARK   60  A    between atoms: _156  and  _159
REMARK   61  A    between atoms: _159  and  _160
REMARK   62  A    between atoms: _165  and  _167
REMARK   63  A    between atoms: _167  and  _168
REMARK   64  A    between atoms: _167  and  _170
REMARK   65  A    between atoms: _170  and  _171
REMARK   66  A    between atoms: _174  and  _176
REMARK   67  A    between atoms: _176  and  _177
REMARK   68  A    between atoms: _176  and  _179
REMARK   69  A    between atoms: _179  and  _180
REMARK   70  A    between atoms: _183  and  _185
REMARK   71  A    between atoms: _185  and  _186
REMARK   72  A    between atoms: _185  and  _188
REMARK   73  A    between atoms: _188  and  _189
REMARK   74  A    between atoms: _189  and  _190
REMARK   75  A    between atoms: _190  and  _191
REMARK   76  A    between atoms: _191  and  _192
REMARK   77  A    between atoms: _196  and  _198
REMARK   78  A    between atoms: _198  and  _199
REMARK   79  A    between atoms: _198  and  _201
REMARK   80  A    between atoms: _201  and  _202
REMARK   81  A    between atoms: _212  and  _214
REMARK   82  A    between atoms: _214  and  _215
REMARK   83  A    between atoms: _217  and  _219
REMARK   84  A    between atoms: _219  and  _220
REMARK   85  A    between atoms: _219  and  _222
REMARK   86  A    between atoms: _222  and  _223
REMARK   87  A    between atoms: _223  and  _224
REMARK   88  A    between atoms: _224  and  _225
REMARK   89  A    between atoms: _234  and  _236
REMARK   90  A    between atoms: _236  and  _237
REMARK   91  A    between atoms: _236  and  _239
REMARK   92  A    between atoms: _239  and  _240
REMARK   93  A    between atoms: _240  and  _241
REMARK   94  A    between atoms: _244  and  _246
REMARK   95  A    between atoms: _246  and  _247
REMARK   96  A    between atoms: _246  and  _249
REMARK   97  A    between atoms: _249  and  _250
REMARK   98  A    between atoms: _250  and  _251
REMARK   99  A    between atoms: _254  and  _256
REMARK  100  A    between atoms: _256  and  _257
REMARK  101  A    between atoms: _256  and  _259
REMARK  102  A    between atoms: _259  and  _260
REMARK  103  A    between atoms: _263  and  _265
REMARK  104  A    between atoms: _265  and  _266
REMARK  105  A    between atoms: _265  and  _268
REMARK  106  A    between atoms: _268  and  _269
REMARK  107  A    between atoms: _274  and  _275
REMARK  108  A    between atoms: _277  and  _279
REMARK  109  A    between atoms: _279  and  _280
REMARK  110  A    between atoms: _279  and  _282
REMARK  111  A    between atoms: _282  and  _283
REMARK  112  A    between atoms: _283  and  _284
REMARK  113  A    between atoms: _284  and  _285
REMARK                            x       y       z     vdW  Elec       q    Type
REMARK                         _______ _______ _______ _____ _____    ______ ____
ROOT
ATOM      1  O   HOH     1      23.217  26.142  21.334  0.00  0.00    +0.000 OA
ENDROOT
TORSDOF 0
REMARK  Name = ../refined-set-2016/3ap4/3ap4_pocket.pdb
REMARK  113 active torsions:
REMARK  status: ('A' for Active; 'I' for Inactive)
REMARK    1  A    between atoms: _1  and  _3
REMARK    2  A    between atoms: _3  and  _4
REMARK    3  A    between atoms: _3  and  _6
REMARK    4  A    between atoms: _6  and  _7
REMARK    5  A    between atoms: _7  and  _8
REMARK    6  A    between atoms: _8  and  _9
REMARK    7  A    between atoms: _18  and  _20
REMARK    8  A    between atoms: _20  and  _21
REMARK    9  A    between atoms: _20  and  _23
REMARK   10  A    between atoms: _23  and  _24
REMARK   11  A    between atoms: _30  and  _32
REMARK   12  A    between atoms: _32  and  _33
REMARK   13  A    between atoms: _32  and  _35
REMARK   14  A    between atoms: _35  and  _36
REMARK   15  A    between atoms: _36  and  _37
REMARK   16  A    between atoms: _42  and  _44
REMARK   17  A    between atoms: _44  and  _45
REMARK   18  A    between atoms: _44  and  _47
REMARK   19  A    between atoms: _47  and  _48
REMARK   20  A    between atoms: _51  and  _53
REMARK   21  A    between atoms: _53  and  _54
REMARK   22  A    between atoms: _53  and  _56
REMARK   23  A    between atoms: _56  and  _57
REMARK   24  A    between atoms: _57  and  _58
REMARK   25  A    between atoms: _58  and  _59
REMARK   26  A    between atoms: _68  and  _70
REMARK   27  A    between atoms: _70  and  _71
REMARK   28  A    between atoms: _70  and  _73
REMARK   29  A    between atoms: _73  and  _74
REMARK   30  A    between atoms: _79  and  _81
REMARK   31  A    between atoms: _81  and  _82
REMARK   32  A    between atoms: _81  and  _84
REMARK   33  A    between atoms: _84  and  _85
REMARK   34  A    between atoms: _91  and  _93
REMARK   35  A    between atoms: _93  and  _94
REMARK   36  A    between atoms: _93  and  _96
REMARK   37  A    between atoms: _96  and  _97
REMARK   38  A    between atoms: _103  and  _104
REMARK   39  A    between atoms: _109  and  _111
REMARK   40  A    between atoms: _111  and  _112
REMARK   41  A    between atoms: _111  and  _114
REMARK   42  A    between atoms: _114  and  _115
REMARK   43  A    between atoms: _115  and  _116
REMARK   44  A    between atoms: _116  and  _117
REMARK   45  A    between atoms: _126  and  _128
REMARK   46  A    between atoms: _128  and  _129
REMARK   47  A    between atoms: _128  and  _131
REMARK   48  A    between atoms: _131  and  _132
REMARK   49  A    between atoms: _132  and  _133
REMARK   50  A    between atoms: _133  and  _134
REMARK   51  A    between atoms: _134  and  _135
REMARK   52  A    between atoms: _139  and  _141
REMARK   53  A    between atoms: _141  and  _142
REMARK   54  A    between atoms: _141  and  _144
REMARK   55  A    between atoms: _147  and  _149
REMARK   56  A    between atoms: _149  and  _150
REMARK   57  A    between atoms: _149  and  _152
REMARK   58  A    between atoms: _154  and  _156
REMARK   59  A    between atoms: _156  and  _157
REMARK   60  A    between atoms: _156  and  _159
REMARK   61  A    between atoms: _159  and  _160
REMARK   62  A    between atoms: _165  and  _167
REMARK   63  A    between atoms: _167  and  _168
REMARK   64  A    between atoms: _167  and  _170
REMARK   65  A    between atoms: _170  and  _171
REMARK   66  A    between atoms: _174  and  _176
REMARK   67  A    between atoms: _176  and  _177
REMARK   68  A    between atoms: _176  and  _179
REMARK   69  A    between atoms: _179  and  _180
REMARK   70  A    between atoms: _183  and  _185
REMARK   71  A    between atoms: _185  and  _186
REMARK   72  A    between atoms: _185  and  _188
REMARK   73  A    between atoms: _188  and  _189
REMARK   74  A    between atoms: _189  and  _190
REMARK   75  A    between atoms: _190  and  _191
REMARK   76  A    between atoms: _191  and  _192
REMARK   77  A    between atoms: _196  and  _198
REMARK   78  A    between atoms: _198  and  _199
REMARK   79  A    between atoms: _198  and  _201
REMARK   80  A    between atoms: _201  and  _202
REMARK   81  A    between atoms: _212  and  _214
REMARK   82  A    between atoms: _214  and  _215
REMARK   83  A    between atoms: _217  and  _219
REMARK   84  A    between atoms: _219  and  _220
REMARK   85  A    between atoms: _219  and  _222
REMARK   86  A    between atoms: _222  and  _223
REMARK   87  A    between atoms: _223  and  _224
REMARK   88  A    between atoms: _224  and  _225
REMARK   89  A    between atoms: _234  and  _236
REMARK   90  A    between atoms: _236  and  _237
REMARK   91  A    between atoms: _236  and  _239
REMARK   92  A    between atoms: _239  and  _240
REMARK   93  A    between atoms: _240  and  _241
REMARK   94  A    between atoms: _244  and  _246
REMARK   95  A    between atoms: _246  and  _247
REMARK   96  A    between atoms: _246  and  _249
REMARK   97  A    between atoms: _249  and  _250
REMARK   98  A    between atoms: _250  and  _251
REMARK   99  A    between atoms: _254  and  _256
REMARK  100  A    between atoms: _256  and  _257
REMARK  101  A    between atoms: _256  and  _259
REMARK  102  A    between atoms: _259  and  _260
REMARK  103  A    between atoms: _263  and  _265
REMARK  104  A    between atoms: _265  and  _266
REMARK  105  A    between atoms: _265  and  _268
REMARK  106  A    between atoms: _268  and  _269
REMARK  107  A    between atoms: _274  and  _275
REMARK  108  A    between atoms: _277  and  _279
REMARK  109  A    between atoms: _279  and  _280
REMARK  110  A    between atoms: _279  and  _282
REMARK  111  A    between atoms: _282  and  _283
REMARK  112  A    between atoms: _283  and  _284
REMARK  113  A    between atoms: _284  and  _285
REMARK                            x       y       z     vdW  Elec       q    Type
REMARK                         _______ _______ _______ _____ _____    ______ ____
ROOT
ATOM      1  O   HOH     1      20.168  23.521  24.701  0.00  0.00    +0.000 OA
ENDROOT
TORSDOF 0
REMARK  Name = ../refined-set-2016/3ap4/3ap4_pocket.pdb
REMARK  113 active torsions:
REMARK  status: ('A' for Active; 'I' for Inactive)
REMARK    1  A    between atoms: _1  and  _3
REMARK    2  A    between atoms: _3  and  _4
REMARK    3  A    between atoms: _3  and  _6
REMARK    4  A    between atoms: _6  and  _7
REMARK    5  A    between atoms: _7  and  _8
REMARK    6  A    between atoms: _8  and  _9
REMARK    7  A    between atoms: _18  and  _20
REMARK    8  A    between atoms: _20  and  _21
REMARK    9  A    between atoms: _20  and  _23
REMARK   10  A    between atoms: _23  and  _24
REMARK   11  A    between atoms: _30  and  _32
REMARK   12  A    between atoms: _32  and  _33
REMARK   13  A    between atoms: _32  and  _35
REMARK   14  A    between atoms: _35  and  _36
REMARK   15  A    between atoms: _36  and  _37
REMARK   16  A    between atoms: _42  and  _44
REMARK   17  A    between atoms: _44  and  _45
REMARK   18  A    between atoms: _44  and  _47
REMARK   19  A    between atoms: _47  and  _48
REMARK   20  A    between atoms: _51  and  _53
REMARK   21  A    between atoms: _53  and  _54
REMARK   22  A    between atoms: _53  and  _56
REMARK   23  A    between atoms: _56  and  _57
REMARK   24  A    between atoms: _57  and  _58
REMARK   25  A    between atoms: _58  and  _59
REMARK   26  A    between atoms: _68  and  _70
REMARK   27  A    between atoms: _70  and  _71
REMARK   28  A    between atoms: _70  and  _73
REMARK   29  A    between atoms: _73  and  _74
REMARK   30  A    between atoms: _79  and  _81
REMARK   31  A    between atoms: _81  and  _82
REMARK   32  A    between atoms: _81  and  _84
REMARK   33  A    between atoms: _84  and  _85
REMARK   34  A    between atoms: _91  and  _93
REMARK   35  A    between atoms: _93  and  _94
REMARK   36  A    between atoms: _93  and  _96
REMARK   37  A    between atoms: _96  and  _97
REMARK   38  A    between atoms: _103  and  _104
REMARK   39  A    between atoms: _109  and  _111
REMARK   40  A    between atoms: _111  and  _112
REMARK   41  A    between atoms: _111  and  _114
REMARK   42  A    between atoms: _114  and  _115
REMARK   43  A    between atoms: _115  and  _116
REMARK   44  A    between atoms: _116  and  _117
REMARK   45  A    between atoms: _126  and  _128
REMARK   46  A    between atoms: _128  and  _129
REMARK   47  A    between atoms: _128  and  _131
REMARK   48  A    between atoms: _131  and  _132
REMARK   49  A    between atoms: _132  and  _133
REMARK   50  A    between atoms: _133  and  _134
REMARK   51  A    between atoms: _134  and  _135
REMARK   52  A    between atoms: _139  and  _141
REMARK   53  A    between atoms: _141  and  _142
REMARK   54  A    between atoms: _141  and  _144
REMARK   55  A    between atoms: _147  and  _149
REMARK   56  A    between atoms: _149  and  _150
REMARK   57  A    between atoms: _149  and  _152
REMARK   58  A    between atoms: _154  and  _156
REMARK   59  A    between atoms: _156  and  _157
REMARK   60  A    between atoms: _156  and  _159
REMARK   61  A    between atoms: _159  and  _160
REMARK   62  A    between atoms: _165  and  _167
REMARK   63  A    between atoms: _167  and  _168
REMARK   64  A    between atoms: _167  and  _170
REMARK   65  A    between atoms: _170  and  _171
REMARK   66  A    between atoms: _174  and  _176
REMARK   67  A    between atoms: _176  and  _177
REMARK   68  A    between atoms: _176  and  _179
REMARK   69  A    between atoms: _179  and  _180
REMARK   70  A    between atoms: _183  and  _185
REMARK   71  A    between atoms: _185  and  _186
REMARK   72  A    between atoms: _185  and  _188
REMARK   73  A    between atoms: _188  and  _189
REMARK   74  A    between atoms: _189  and  _190
REMARK   75  A    between atoms: _190  and  _191
REMARK   76  A    between atoms: _191  and  _192
REMARK   77  A    between atoms: _196  and  _198
REMARK   78  A    between atoms: _198  and  _199
REMARK   79  A    between atoms: _198  and  _201
REMARK   80  A    between atoms: _201  and  _202
REMARK   81  A    between atoms: _212  and  _214
REMARK   82  A    between atoms: _214  and  _215
REMARK   83  A    between atoms: _217  and  _219
REMARK   84  A    between atoms: _219  and  _220
REMARK   85  A    between atoms: _219  and  _222
REMARK   86  A    between atoms: _222  and  _223
REMARK   87  A    between atoms: _223  and  _224
REMARK   88  A    between atoms: _224  and  _225
REMARK   89  A    between atoms: _234  and  _236
REMARK   90  A    between atoms: _236  and  _237
REMARK   91  A    between atoms: _236  and  _239
REMARK   92  A    between atoms: _239  and  _240
REMARK   93  A    between atoms: _240  and  _241
REMARK   94  A    between atoms: _244  and  _246
REMARK   95  A    between atoms: _246  and  _247
REMARK   96  A    between atoms: _246  and  _249
REMARK   97  A    between atoms: _249  and  _250
REMARK   98  A    between atoms: _250  and  _251
REMARK   99  A    between atoms: _254  and  _256
REMARK  100  A    between atoms: _256  and  _257
REMARK  101  A    between atoms: _256  and  _259
REMARK  102  A    between atoms: _259  and  _260
REMARK  103  A    between atoms: _263  and  _265
REMARK  104  A    between atoms: _265  and  _266
REMARK  105  A    between atoms: _265  and  _268
REMARK  106  A    between atoms: _268  and  _269
REMARK  107  A    between atoms: _274  and  _275
REMARK  108  A    between atoms: _277  and  _279
REMARK  109  A    between atoms: _279  and  _280
REMARK  110  A    between atoms: _279  and  _282
REMARK  111  A    between atoms: _282  and  _283
REMARK  112  A    between atoms: _283  and  _284
REMARK  113  A    between atoms: _284  and  _285
REMARK                            x       y       z     vdW  Elec       q    Type
REMARK                         _______ _______ _______ _____ _____    ______ ____
ROOT
ATOM      1  O   HOH     1      19.078  29.761  26.373  0.00  0.00    +0.000 OA
ENDROOT
TORSDOF 0
REMARK  Name = ../refined-set-2016/3ap4/3ap4_pocket.pdb
REMARK  113 active torsions:
REMARK  status: ('A' for Active; 'I' for Inactive)
REMARK    1  A    between atoms: _1  and  _3
REMARK    2  A    between atoms: _3  and  _4
REMARK    3  A    between atoms: _3  and  _6
REMARK    4  A    between atoms: _6  and  _7
REMARK    5  A    between atoms: _7  and  _8
REMARK    6  A    between atoms: _8  and  _9
REMARK    7  A    between atoms: _18  and  _20
REMARK    8  A    between atoms: _20  and  _21
REMARK    9  A    between atoms: _20  and  _23
REMARK   10  A    between atoms: _23  and  _24
REMARK   11  A    between atoms: _30  and  _32
REMARK   12  A    between atoms: _32  and  _33
REMARK   13  A    between atoms: _32  and  _35
REMARK   14  A    between atoms: _35  and  _36
REMARK   15  A    between atoms: _36  and  _37
REMARK   16  A    between atoms: _42  and  _44
REMARK   17  A    between atoms: _44  and  _45
REMARK   18  A    between atoms: _44  and  _47
REMARK   19  A    between atoms: _47  and  _48
REMARK   20  A    between atoms: _51  and  _53
REMARK   21  A    between atoms: _53  and  _54
REMARK   22  A    between atoms: _53  and  _56
REMARK   23  A    between atoms: _56  and  _57
REMARK   24  A    between atoms: _57  and  _58
REMARK   25  A    between atoms: _58  and  _59
REMARK   26  A    between atoms: _68  and  _70
REMARK   27  A    between atoms: _70  and  _71
REMARK   28  A    between atoms: _70  and  _73
REMARK   29  A    between atoms: _73  and  _74
REMARK   30  A    between atoms: _79  and  _81
REMARK   31  A    between atoms: _81  and  _82
REMARK   32  A    between atoms: _81  and  _84
REMARK   33  A    between atoms: _84  and  _85
REMARK   34  A    between atoms: _91  and  _93
REMARK   35  A    between atoms: _93  and  _94
REMARK   36  A    between atoms: _93  and  _96
REMARK   37  A    between atoms: _96  and  _97
REMARK   38  A    between atoms: _103  and  _104
REMARK   39  A    between atoms: _109  and  _111
REMARK   40  A    between atoms: _111  and  _112
REMARK   41  A    between atoms: _111  and  _114
REMARK   42  A    between atoms: _114  and  _115
REMARK   43  A    between atoms: _115  and  _116
REMARK   44  A    between atoms: _116  and  _117
REMARK   45  A    between atoms: _126  and  _128
REMARK   46  A    between atoms: _128  and  _129
REMARK   47  A    between atoms: _128  and  _131
REMARK   48  A    between atoms: _131  and  _132
REMARK   49  A    between atoms: _132  and  _133
REMARK   50  A    between atoms: _133  and  _134
REMARK   51  A    between atoms: _134  and  _135
REMARK   52  A    between atoms: _139  and  _141
REMARK   53  A    between atoms: _141  and  _142
REMARK   54  A    between atoms: _141  and  _144
REMARK   55  A    between atoms: _147  and  _149
REMARK   56  A    between atoms: _149  and  _150
REMARK   57  A    between atoms: _149  and  _152
REMARK   58  A    between atoms: _154  and  _156
REMARK   59  A    between atoms: _156  and  _157
REMARK   60  A    between atoms: _156  and  _159
REMARK   61  A    between atoms: _159  and  _160
REMARK   62  A    between atoms: _165  and  _167
REMARK   63  A    between atoms: _167  and  _168
REMARK   64  A    between atoms: _167  and  _170
REMARK   65  A    between atoms: _170  and  _171
REMARK   66  A    between atoms: _174  and  _176
REMARK   67  A    between atoms: _176  and  _177
REMARK   68  A    between atoms: _176  and  _179
REMARK   69  A    between atoms: _179  and  _180
REMARK   70  A    between atoms: _183  and  _185
REMARK   71  A    between atoms: _185  and  _186
REMARK   72  A    between atoms: _185  and  _188
REMARK   73  A    between atoms: _188  and  _189
REMARK   74  A    between atoms: _189  and  _190
REMARK   75  A    between atoms: _190  and  _191
REMARK   76  A    between atoms: _191  and  _192
REMARK   77  A    between atoms: _196  and  _198
REMARK   78  A    between atoms: _198  and  _199
REMARK   79  A    between atoms: _198  and  _201
REMARK   80  A    between atoms: _201  and  _202
REMARK   81  A    between atoms: _212  and  _214
REMARK   82  A    between atoms: _214  and  _215
REMARK   83  A    between atoms: _217  and  _219
REMARK   84  A    between atoms: _219  and  _220
REMARK   85  A    between atoms: _219  and  _222
REMARK   86  A    between atoms: _222  and  _223
REMARK   87  A    between atoms: _223  and  _224
REMARK   88  A    between atoms: _224  and  _225
REMARK   89  A    between atoms: _234  and  _236
REMARK   90  A    between atoms: _236  and  _237
REMARK   91  A    between atoms: _236  and  _239
REMARK   92  A    between atoms: _239  and  _240
REMARK   93  A    between atoms: _240  and  _241
REMARK   94  A    between atoms: _244  and  _246
REMARK   95  A    between atoms: _246  and  _247
REMARK   96  A    between atoms: _246  and  _249
REMARK   97  A    between atoms: _249  and  _250
REMARK   98  A    between atoms: _250  and  _251
REMARK   99  A    between atoms: _254  and  _256
REMARK  100  A    between atoms: _256  and  _257
REMARK  101  A    between atoms: _256  and  _259
REMARK  102  A    between atoms: _259  and  _260
REMARK  103  A    between atoms: _263  and  _265
REMARK  104  A    between atoms: _265  and  _266
REMARK  105  A    between atoms: _265  and  _268
REMARK  106  A    between atoms: _268  and  _269
REMARK  107  A    between atoms: _274  and  _275
REMARK  108  A    between atoms: _277  and  _279
REMARK  109  A    between atoms: _279  and  _280
REMARK  110  A    between atoms: _279  and  _282
REMARK  111  A    between atoms: _282  and  _283
REMARK  112  A    between atoms: _283  and  _284
REMARK  113  A    between atoms: _284  and  _285
REMARK                            x       y       z     vdW  Elec       q    Type
REMARK                         _______ _______ _______ _____ _____    ______ ____
ROOT
ATOM      1  O   HOH     1      26.418  34.238  23.468  0.00  0.00    +0.000 OA
ENDROOT
TORSDOF 0
REMARK  Name = ../refined-set-2016/3ap4/3ap4_pocket.pdb
REMARK  113 active torsions:
REMARK  status: ('A' for Active; 'I' for Inactive)
REMARK    1  A    between atoms: _1  and  _3
REMARK    2  A    between atoms: _3  and  _4
REMARK    3  A    between atoms: _3  and  _6
REMARK    4  A    between atoms: _6  and  _7
REMARK    5  A    between atoms: _7  and  _8
REMARK    6  A    between atoms: _8  and  _9
REMARK    7  A    between atoms: _18  and  _20
REMARK    8  A    between atoms: _20  and  _21
REMARK    9  A    between atoms: _20  and  _23
REMARK   10  A    between atoms: _23  and  _24
REMARK   11  A    between atoms: _30  and  _32
REMARK   12  A    between atoms: _32  and  _33
REMARK   13  A    between atoms: _32  and  _35
REMARK   14  A    between atoms: _35  and  _36
REMARK   15  A    between atoms: _36  and  _37
REMARK   16  A    between atoms: _42  and  _44
REMARK   17  A    between atoms: _44  and  _45
REMARK   18  A    between atoms: _44  and  _47
REMARK   19  A    between atoms: _47  and  _48
REMARK   20  A    between atoms: _51  and  _53
REMARK   21  A    between atoms: _53  and  _54
REMARK   22  A    between atoms: _53  and  _56
REMARK   23  A    between atoms: _56  and  _57
REMARK   24  A    between atoms: _57  and  _58
REMARK   25  A    between atoms: _58  and  _59
REMARK   26  A    between atoms: _68  and  _70
REMARK   27  A    between atoms: _70  and  _71
REMARK   28  A    between atoms: _70  and  _73
REMARK   29  A    between atoms: _73  and  _74
REMARK   30  A    between atoms: _79  and  _81
REMARK   31  A    between atoms: _81  and  _82
REMARK   32  A    between atoms: _81  and  _84
REMARK   33  A    between atoms: _84  and  _85
REMARK   34  A    between atoms: _91  and  _93
REMARK   35  A    between atoms: _93  and  _94
REMARK   36  A    between atoms: _93  and  _96
REMARK   37  A    between atoms: _96  and  _97
REMARK   38  A    between atoms: _103  and  _104
REMARK   39  A    between atoms: _109  and  _111
REMARK   40  A    between atoms: _111  and  _112
REMARK   41  A    between atoms: _111  and  _114
REMARK   42  A    between atoms: _114  and  _115
REMARK   43  A    between atoms: _115  and  _116
REMARK   44  A    between atoms: _116  and  _117
REMARK   45  A    between atoms: _126  and  _128
REMARK   46  A    between atoms: _128  and  _129
REMARK   47  A    between atoms: _128  and  _131
REMARK   48  A    between atoms: _131  and  _132
REMARK   49  A    between atoms: _132  and  _133
REMARK   50  A    between atoms: _133  and  _134
REMARK   51  A    between atoms: _134  and  _135
REMARK   52  A    between atoms: _139  and  _141
REMARK   53  A    between atoms: _141  and  _142
REMARK   54  A    between atoms: _141  and  _144
REMARK   55  A    between atoms: _147  and  _149
REMARK   56  A    between atoms: _149  and  _150
REMARK   57  A    between atoms: _149  and  _152
REMARK   58  A    between atoms: _154  and  _156
REMARK   59  A    between atoms: _156  and  _157
REMARK   60  A    between atoms: _156  and  _159
REMARK   61  A    between atoms: _159  and  _160
REMARK   62  A    between atoms: _165  and  _167
REMARK   63  A    between atoms: _167  and  _168
REMARK   64  A    between atoms: _167  and  _170
REMARK   65  A    between atoms: _170  and  _171
REMARK   66  A    between atoms: _174  and  _176
REMARK   67  A    between atoms: _176  and  _177
REMARK   68  A    between atoms: _176  and  _179
REMARK   69  A    between atoms: _179  and  _180
REMARK   70  A    between atoms: _183  and  _185
REMARK   71  A    between atoms: _185  and  _186
REMARK   72  A    between atoms: _185  and  _188
REMARK   73  A    between atoms: _188  and  _189
REMARK   74  A    between atoms: _189  and  _190
REMARK   75  A    between atoms: _190  and  _191
REMARK   76  A    between atoms: _191  and  _192
REMARK   77  A    between atoms: _196  and  _198
REMARK   78  A    between atoms: _198  and  _199
REMARK   79  A    between atoms: _198  and  _201
REMARK   80  A    between atoms: _201  and  _202
REMARK   81  A    between atoms: _212  and  _214
REMARK   82  A    between atoms: _214  and  _215
REMARK   83  A    between atoms: _217  and  _219
REMARK   84  A    between atoms: _219  and  _220
REMARK   85  A    between atoms: _219  and  _222
REMARK   86  A    between atoms: _222  and  _223
REMARK   87  A    between atoms: _223  and  _224
REMARK   88  A    between atoms: _224  and  _225
REMARK   89  A    between atoms: _234  and  _236
REMARK   90  A    between atoms: _236  and  _237
REMARK   91  A    between atoms: _236  and  _239
REMARK   92  A    between atoms: _239  and  _240
REMARK   93  A    between atoms: _240  and  _241
REMARK   94  A    between atoms: _244  and  _246
REMARK   95  A    between atoms: _246  and  _247
REMARK   96  A    between atoms: _246  and  _249
REMARK   97  A    between atoms: _249  and  _250
REMARK   98  A    between atoms: _250  and  _251
REMARK   99  A    between atoms: _254  and  _256
REMARK  100  A    between atoms: _256  and  _257
REMARK  101  A    between atoms: _256  and  _259
REMARK  102  A    between atoms: _259  and  _260
REMARK  103  A    between atoms: _263  and  _265
REMARK  104  A    between atoms: _265  and  _266
REMARK  105  A    between atoms: _265  and  _268
REMARK  106  A    between atoms: _268  and  _269
REMARK  107  A    between atoms: _274  and  _275
REMARK  108  A    between atoms: _277  and  _279
REMARK  109  A    between atoms: _279  and  _280
REMARK  110  A    between atoms: _279  and  _282
REMARK  111  A    between atoms: _282  and  _283
REMARK  112  A    between atoms: _283  and  _284
REMARK  113  A    between atoms: _284  and  _285
REMARK                            x       y       z     vdW  Elec       q    Type
REMARK                         _______ _______ _______ _____ _____    ______ ____
ROOT
ATOM      1  O   HOH     1      25.892  31.223  26.393  0.00  0.00    +0.000 OA
ENDROOT
TORSDOF 0
REMARK  Name = ../refined-set-2016/3ap4/3ap4_pocket.pdb
REMARK  113 active torsions:
REMARK  status: ('A' for Active; 'I' for Inactive)
REMARK    1  A    between atoms: _1  and  _3
REMARK    2  A    between atoms: _3  and  _4
REMARK    3  A    between atoms: _3  and  _6
REMARK    4  A    between atoms: _6  and  _7
REMARK    5  A    between atoms: _7  and  _8
REMARK    6  A    between atoms: _8  and  _9
REMARK    7  A    between atoms: _18  and  _20
REMARK    8  A    between atoms: _20  and  _21
REMARK    9  A    between atoms: _20  and  _23
REMARK   10  A    between atoms: _23  and  _24
REMARK   11  A    between atoms: _30  and  _32
REMARK   12  A    between atoms: _32  and  _33
REMARK   13  A    between atoms: _32  and  _35
REMARK   14  A    between atoms: _35  and  _36
REMARK   15  A    between atoms: _36  and  _37
REMARK   16  A    between atoms: _42  and  _44
REMARK   17  A    between atoms: _44  and  _45
REMARK   18  A    between atoms: _44  and  _47
REMARK   19  A    between atoms: _47  and  _48
REMARK   20  A    between atoms: _51  and  _53
REMARK   21  A    between atoms: _53  and  _54
REMARK   22  A    between atoms: _53  and  _56
REMARK   23  A    between atoms: _56  and  _57
REMARK   24  A    between atoms: _57  and  _58
REMARK   25  A    between atoms: _58  and  _59
REMARK   26  A    between atoms: _68  and  _70
REMARK   27  A    between atoms: _70  and  _71
REMARK   28  A    between atoms: _70  and  _73
REMARK   29  A    between atoms: _73  and  _74
REMARK   30  A    between atoms: _79  and  _81
REMARK   31  A    between atoms: _81  and  _82
REMARK   32  A    between atoms: _81  and  _84
REMARK   33  A    between atoms: _84  and  _85
REMARK   34  A    between atoms: _91  and  _93
REMARK   35  A    between atoms: _93  and  _94
REMARK   36  A    between atoms: _93  and  _96
REMARK   37  A    between atoms: _96  and  _97
REMARK   38  A    between atoms: _103  and  _104
REMARK   39  A    between atoms: _109  and  _111
REMARK   40  A    between atoms: _111  and  _112
REMARK   41  A    between atoms: _111  and  _114
REMARK   42  A    between atoms: _114  and  _115
REMARK   43  A    between atoms: _115  and  _116
REMARK   44  A    between atoms: _116  and  _117
REMARK   45  A    between atoms: _126  and  _128
REMARK   46  A    between atoms: _128  and  _129
REMARK   47  A    between atoms: _128  and  _131
REMARK   48  A    between atoms: _131  and  _132
REMARK   49  A    between atoms: _132  and  _133
REMARK   50  A    between atoms: _133  and  _134
REMARK   51  A    between atoms: _134  and  _135
REMARK   52  A    between atoms: _139  and  _141
REMARK   53  A    between atoms: _141  and  _142
REMARK   54  A    between atoms: _141  and  _144
REMARK   55  A    between atoms: _147  and  _149
REMARK   56  A    between atoms: _149  and  _150
REMARK   57  A    between atoms: _149  and  _152
REMARK   58  A    between atoms: _154  and  _156
REMARK   59  A    between atoms: _156  and  _157
REMARK   60  A    between atoms: _156  and  _159
REMARK   61  A    between atoms: _159  and  _160
REMARK   62  A    between atoms: _165  and  _167
REMARK   63  A    between atoms: _167  and  _168
REMARK   64  A    between atoms: _167  and  _170
REMARK   65  A    between atoms: _170  and  _171
REMARK   66  A    between atoms: _174  and  _176
REMARK   67  A    between atoms: _176  and  _177
REMARK   68  A    between atoms: _176  and  _179
REMARK   69  A    between atoms: _179  and  _180
REMARK   70  A    between atoms: _183  and  _185
REMARK   71  A    between atoms: _185  and  _186
REMARK   72  A    between atoms: _185  and  _188
REMARK   73  A    between atoms: _188  and  _189
REMARK   74  A    between atoms: _189  and  _190
REMARK   75  A    between atoms: _190  and  _191
REMARK   76  A    between atoms: _191  and  _192
REMARK   77  A    between atoms: _196  and  _198
REMARK   78  A    between atoms: _198  and  _199
REMARK   79  A    between atoms: _198  and  _201
REMARK   80  A    between atoms: _201  and  _202
REMARK   81  A    between atoms: _212  and  _214
REMARK   82  A    between atoms: _214  and  _215
REMARK   83  A    between atoms: _217  and  _219
REMARK   84  A    between atoms: _219  and  _220
REMARK   85  A    between atoms: _219  and  _222
REMARK   86  A    between atoms: _222  and  _223
REMARK   87  A    between atoms: _223  and  _224
REMARK   88  A    between atoms: _224  and  _225
REMARK   89  A    between atoms: _234  and  _236
REMARK   90  A    between atoms: _236  and  _237
REMARK   91  A    between atoms: _236  and  _239
REMARK   92  A    between atoms: _239  and  _240
REMARK   93  A    between atoms: _240  and  _241
REMARK   94  A    between atoms: _244  and  _246
REMARK   95  A    between atoms: _246  and  _247
REMARK   96  A    between atoms: _246  and  _249
REMARK   97  A    between atoms: _249  and  _250
REMARK   98  A    between atoms: _250  and  _251
REMARK   99  A    between atoms: _254  and  _256
REMARK  100  A    between atoms: _256  and  _257
REMARK  101  A    between atoms: _256  and  _259
REMARK  102  A    between atoms: _259  and  _260
REMARK  103  A    between atoms: _263  and  _265
REMARK  104  A    between atoms: _265  and  _266
REMARK  105  A    between atoms: _265  and  _268
REMARK  106  A    between atoms: _268  and  _269
REMARK  107  A    between atoms: _274  and  _275
REMARK  108  A    between atoms: _277  and  _279
REMARK  109  A    between atoms: _279  and  _280
REMARK  110  A    between atoms: _279  and  _282
REMARK  111  A    between atoms: _282  and  _283
REMARK  112  A    between atoms: _283  and  _284
REMARK  113  A    between atoms: _284  and  _285
REMARK                            x       y       z     vdW  Elec       q    Type
REMARK                         _______ _______ _______ _____ _____    ______ ____
ROOT
ATOM      1  O   HOH     1      28.242  29.281  18.442  0.00  0.00    +0.000 OA
ENDROOT
TORSDOF 0
REMARK  Name = ../refined-set-2016/3ap4/3ap4_pocket.pdb
REMARK  113 active torsions:
REMARK  status: ('A' for Active; 'I' for Inactive)
REMARK    1  A    between atoms: _1  and  _3
REMARK    2  A    between atoms: _3  and  _4
REMARK    3  A    between atoms: _3  and  _6
REMARK    4  A    between atoms: _6  and  _7
REMARK    5  A    between atoms: _7  and  _8
REMARK    6  A    between atoms: _8  and  _9
REMARK    7  A    between atoms: _18  and  _20
REMARK    8  A    between atoms: _20  and  _21
REMARK    9  A    between atoms: _20  and  _23
REMARK   10  A    between atoms: _23  and  _24
REMARK   11  A    between atoms: _30  and  _32
REMARK   12  A    between atoms: _32  and  _33
REMARK   13  A    between atoms: _32  and  _35
REMARK   14  A    between atoms: _35  and  _36
REMARK   15  A    between atoms: _36  and  _37
REMARK   16  A    between atoms: _42  and  _44
REMARK   17  A    between atoms: _44  and  _45
REMARK   18  A    between atoms: _44  and  _47
REMARK   19  A    between atoms: _47  and  _48
REMARK   20  A    between atoms: _51  and  _53
REMARK   21  A    between atoms: _53  and  _54
REMARK   22  A    between atoms: _53  and  _56
REMARK   23  A    between atoms: _56  and  _57
REMARK   24  A    between atoms: _57  and  _58
REMARK   25  A    between atoms: _58  and  _59
REMARK   26  A    between atoms: _68  and  _70
REMARK   27  A    between atoms: _70  and  _71
REMARK   28  A    between atoms: _70  and  _73
REMARK   29  A    between atoms: _73  and  _74
REMARK   30  A    between atoms: _79  and  _81
REMARK   31  A    between atoms: _81  and  _82
REMARK   32  A    between atoms: _81  and  _84
REMARK   33  A    between atoms: _84  and  _85
REMARK   34  A    between atoms: _91  and  _93
REMARK   35  A    between atoms: _93  and  _94
REMARK   36  A    between atoms: _93  and  _96
REMARK   37  A    between atoms: _96  and  _97
REMARK   38  A    between atoms: _103  and  _104
REMARK   39  A    between atoms: _109  and  _111
REMARK   40  A    between atoms: _111  and  _112
REMARK   41  A    between atoms: _111  and  _114
REMARK   42  A    between atoms: _114  and  _115
REMARK   43  A    between atoms: _115  and  _116
REMARK   44  A    between atoms: _116  and  _117
REMARK   45  A    between atoms: _126  and  _128
REMARK   46  A    between atoms: _128  and  _129
REMARK   47  A    between atoms: _128  and  _131
REMARK   48  A    between atoms: _131  and  _132
REMARK   49  A    between atoms: _132  and  _133
REMARK   50  A    between atoms: _133  and  _134
REMARK   51  A    between atoms: _134  and  _135
REMARK   52  A    between atoms: _139  and  _141
REMARK   53  A    between atoms: _141  and  _142
REMARK   54  A    between atoms: _141  and  _144
REMARK   55  A    between atoms: _147  and  _149
REMARK   56  A    between atoms: _149  and  _150
REMARK   57  A    between atoms: _149  and  _152
REMARK   58  A    between atoms: _154  and  _156
REMARK   59  A    between atoms: _156  and  _157
REMARK   60  A    between atoms: _156  and  _159
REMARK   61  A    between atoms: _159  and  _160
REMARK   62  A    between atoms: _165  and  _167
REMARK   63  A    between atoms: _167  and  _168
REMARK   64  A    between atoms: _167  and  _170
REMARK   65  A    between atoms: _170  and  _171
REMARK   66  A    between atoms: _174  and  _176
REMARK   67  A    between atoms: _176  and  _177
REMARK   68  A    between atoms: _176  and  _179
REMARK   69  A    between atoms: _179  and  _180
REMARK   70  A    between atoms: _183  and  _185
REMARK   71  A    between atoms: _185  and  _186
REMARK   72  A    between atoms: _185  and  _188
REMARK   73  A    between atoms: _188  and  _189
REMARK   74  A    between atoms: _189  and  _190
REMARK   75  A    between atoms: _190  and  _191
REMARK   76  A    between atoms: _191  and  _192
REMARK   77  A    between atoms: _196  and  _198
REMARK   78  A    between atoms: _198  and  _199
REMARK   79  A    between atoms: _198  and  _201
REMARK   80  A    between atoms: _201  and  _202
REMARK   81  A    between atoms: _212  and  _214
REMARK   82  A    between atoms: _214  and  _215
REMARK   83  A    between atoms: _217  and  _219
REMARK   84  A    between atoms: _219  and  _220
REMARK   85  A    between atoms: _219  and  _222
REMARK   86  A    between atoms: _222  and  _223
REMARK   87  A    between atoms: _223  and  _224
REMARK   88  A    between atoms: _224  and  _225
REMARK   89  A    between atoms: _234  and  _236
REMARK   90  A    between atoms: _236  and  _237
REMARK   91  A    between atoms: _236  and  _239
REMARK   92  A    between atoms: _239  and  _240
REMARK   93  A    between atoms: _240  and  _241
REMARK   94  A    between atoms: _244  and  _246
REMARK   95  A    between atoms: _246  and  _247
REMARK   96  A    between atoms: _246  and  _249
REMARK   97  A    between atoms: _249  and  _250
REMARK   98  A    between atoms: _250  and  _251
REMARK   99  A    between atoms: _254  and  _256
REMARK  100  A    between atoms: _256  and  _257
REMARK  101  A    between atoms: _256  and  _259
REMARK  102  A    between atoms: _259  and  _260
REMARK  103  A    between atoms: _263  and  _265
REMARK  104  A    between atoms: _265  and  _266
REMARK  105  A    between atoms: _265  and  _268
REMARK  106  A    between atoms: _268  and  _269
REMARK  107  A    between atoms: _274  and  _275
REMARK  108  A    between atoms: _277  and  _279
REMARK  109  A    between atoms: _279  and  _280
REMARK  110  A    between atoms: _279  and  _282
REMARK  111  A    between atoms: _282  and  _283
REMARK  112  A    between atoms: _283  and  _284
REMARK  113  A    between atoms: _284  and  _285
REMARK                            x       y       z     vdW  Elec       q    Type
REMARK                         _______ _______ _______ _____ _____    ______ ____
ROOT
ATOM      1  O   HOH     1      19.631  35.709  26.053  0.00  0.00    +0.000 OA
ENDROOT
TORSDOF 0
