REMARK  Name = ../refined-set-2016/4ty6/4ty6_pocket.pdb
REMARK  225 active torsions:
REMARK  status: ('A' for Active; 'I' for Inactive)
REMARK    1  A    between atoms: _1  and  _5
REMARK    2  A    between atoms: _5  and  _6
REMARK    3  A    between atoms: _5  and  _8
REMARK    4  A    between atoms: _8  and  _9
REMARK    5  A    between atoms: _12  and  _14
REMARK    6  A    between atoms: _14  and  _15
REMARK    7  A    between atoms: _14  and  _17
REMARK    8  A    between atoms: _20  and  _22
REMARK    9  A    between atoms: _22  and  _23
REMARK   10  A    between atoms: _22  and  _25
REMARK   11  A    between atoms: _25  and  _26
REMARK   12  A    between atoms: _29  and  _31
REMARK   13  A    between atoms: _31  and  _32
REMARK   14  A    between atoms: _31  and  _34
REMARK   15  A    between atoms: _34  and  _35
REMARK   16  A    between atoms: _38  and  _40
REMARK   17  A    between atoms: _40  and  _41
REMARK   18  A    between atoms: _40  and  _43
REMARK   19  A    between atoms: _43  and  _44
REMARK   20  A    between atoms: _49  and  _51
REMARK   21  A    between atoms: _51  and  _52
REMARK   22  A    between atoms: _51  and  _54
REMARK   23  A    between atoms: _54  and  _55
REMARK   24  A    between atoms: _58  and  _60
REMARK   25  A    between atoms: _60  and  _61
REMARK   26  A    between atoms: _60  and  _63
REMARK   27  A    between atoms: _63  and  _64
REMARK   28  A    between atoms: _67  and  _69
REMARK   29  A    between atoms: _69  and  _70
REMARK   30  A    between atoms: _69  and  _72
REMARK   31  A    between atoms: _72  and  _73
REMARK   32  A    between atoms: _73  and  _74
REMARK   33  A    between atoms: _79  and  _81
REMARK   34  A    between atoms: _81  and  _82
REMARK   35  A    between atoms: _81  and  _84
REMARK   36  A    between atoms: _84  and  _85
REMARK   37  A    between atoms: _85  and  _86
REMARK   38  A    between atoms: _86  and  _87
REMARK   39  A    between atoms: _96  and  _98
REMARK   40  A    between atoms: _98  and  _99
REMARK   41  A    between atoms: _98  and  _101
REMARK   42  A    between atoms: _101  and  _102
REMARK   43  A    between atoms: _107  and  _109
REMARK   44  A    between atoms: _109  and  _110
REMARK   45  A    between atoms: _109  and  _112
REMARK   46  A    between atoms: _112  and  _113
REMARK   47  A    between atoms: _116  and  _118
REMARK   48  A    between atoms: _118  and  _119
REMARK   49  A    between atoms: _118  and  _121
REMARK   50  A    between atoms: _121  and  _122
REMARK   51  A    between atoms: _122  and  _157
REMARK   52  A    between atoms: _123  and  _125
REMARK   53  A    between atoms: _125  and  _126
REMARK   54  A    between atoms: _128  and  _130
REMARK   55  A    between atoms: _130  and  _131
REMARK   56  A    between atoms: _134  and  _136
REMARK   57  A    between atoms: _136  and  _137
REMARK   58  A    between atoms: _140  and  _142
REMARK   59  A    between atoms: _142  and  _143
REMARK   60  A    between atoms: _142  and  _145
REMARK   61  A    between atoms: _145  and  _146
REMARK   62  A    between atoms: _151  and  _153
REMARK   63  A    between atoms: _153  and  _154
REMARK   64  A    between atoms: _153  and  _156
REMARK   65  A    between atoms: _156  and  _157
REMARK   66  A    between atoms: _158  and  _160
REMARK   67  A    between atoms: _160  and  _161
REMARK   68  A    between atoms: _160  and  _163
REMARK   69  A    between atoms: _163  and  _164
REMARK   70  A    between atoms: _170  and  _172
REMARK   71  A    between atoms: _172  and  _173
REMARK   72  A    between atoms: _172  and  _175
REMARK   73  A    between atoms: _175  and  _176
REMARK   74  A    between atoms: _181  and  _182
REMARK   75  A    between atoms: _184  and  _186
REMARK   76  A    between atoms: _186  and  _187
REMARK   77  A    between atoms: _186  and  _189
REMARK   78  A    between atoms: _192  and  _194
REMARK   79  A    between atoms: _194  and  _195
REMARK   80  A    between atoms: _194  and  _197
REMARK   81  A    between atoms: _197  and  _198
REMARK   82  A    between atoms: _198  and  _199
REMARK   83  A    between atoms: _204  and  _206
REMARK   84  A    between atoms: _206  and  _207
REMARK   85  A    between atoms: _210  and  _212
REMARK   86  A    between atoms: _212  and  _213
REMARK   87  A    between atoms: _212  and  _215
REMARK   88  A    between atoms: _215  and  _216
REMARK   89  A    between atoms: _219  and  _221
REMARK   90  A    between atoms: _221  and  _222
REMARK   91  A    between atoms: _221  and  _224
REMARK   92  A    between atoms: _227  and  _229
REMARK   93  A    between atoms: _229  and  _230
REMARK   94  A    between atoms: _229  and  _232
REMARK   95  A    between atoms: _232  and  _233
REMARK   96  A    between atoms: _243  and  _245
REMARK   97  A    between atoms: _245  and  _246
REMARK   98  A    between atoms: _248  and  _250
REMARK   99  A    between atoms: _250  and  _251
REMARK  100  A    between atoms: _250  and  _253
REMARK  101  A    between atoms: _253  and  _254
REMARK  102  A    between atoms: _259  and  _260
REMARK  103  A    between atoms: _262  and  _264
REMARK  104  A    between atoms: _264  and  _265
REMARK  105  A    between atoms: _264  and  _267
REMARK  106  A    between atoms: _267  and  _268
REMARK  107  A    between atoms: _271  and  _273
REMARK  108  A    between atoms: _273  and  _274
REMARK  109  A    between atoms: _273  and  _276
REMARK  110  A    between atoms: _276  and  _277
REMARK  111  A    between atoms: _280  and  _282
REMARK  112  A    between atoms: _282  and  _283
REMARK  113  A    between atoms: _282  and  _285
REMARK  114  A    between atoms: _285  and  _286
REMARK  115  A    between atoms: _286  and  _287
REMARK  116  A    between atoms: _287  and  _288
REMARK  117  A    between atoms: _288  and  _289
REMARK  118  A    between atoms: _293  and  _295
REMARK  119  A    between atoms: _295  and  _296
REMARK  120  A    between atoms: _295  and  _298
REMARK  121  A    between atoms: _298  and  _299
REMARK  122  A    between atoms: _302  and  _304
REMARK  123  A    between atoms: _304  and  _305
REMARK  124  A    between atoms: _304  and  _307
REMARK  125  A    between atoms: _307  and  _308
REMARK  126  A    between atoms: _308  and  _309
REMARK  127  A    between atoms: _314  and  _316
REMARK  128  A    between atoms: _316  and  _317
REMARK  129  A    between atoms: _316  and  _319
REMARK  130  A    between atoms: _319  and  _320
REMARK  131  A    between atoms: _325  and  _326
REMARK  132  A    between atoms: _328  and  _330
REMARK  133  A    between atoms: _330  and  _331
REMARK  134  A    between atoms: _334  and  _336
REMARK  135  A    between atoms: _336  and  _337
REMARK  136  A    between atoms: _336  and  _339
REMARK  137  A    between atoms: _339  and  _340
REMARK  138  A    between atoms: _340  and  _341
REMARK  139  A    between atoms: _341  and  _342
REMARK  140  A    between atoms: _342  and  _343
REMARK  141  A    between atoms: _347  and  _349
REMARK  142  A    between atoms: _349  and  _350
REMARK  143  A    between atoms: _349  and  _352
REMARK  144  A    between atoms: _352  and  _353
REMARK  145  A    between atoms: _356  and  _358
REMARK  146  A    between atoms: _358  and  _359
REMARK  147  A    between atoms: _362  and  _364
REMARK  148  A    between atoms: _364  and  _365
REMARK  149  A    between atoms: _364  and  _367
REMARK  150  A    between atoms: _367  and  _368
REMARK  151  A    between atoms: _368  and  _482
REMARK  152  A    between atoms: _369  and  _371
REMARK  153  A    between atoms: _371  and  _372
REMARK  154  A    between atoms: _371  and  _374
REMARK  155  A    between atoms: _374  and  _375
REMARK  156  A    between atoms: _375  and  _376
REMARK  157  A    between atoms: _376  and  _377
REMARK  158  A    between atoms: _377  and  _378
REMARK  159  A    between atoms: _382  and  _384
REMARK  160  A    between atoms: _384  and  _385
REMARK  161  A    between atoms: _387  and  _389
REMARK  162  A    between atoms: _389  and  _390
REMARK  163  A    between atoms: _389  and  _392
REMARK  164  A    between atoms: _392  and  _393
REMARK  165  A    between atoms: _396  and  _398
REMARK  166  A    between atoms: _398  and  _399
REMARK  167  A    between atoms: _398  and  _401
REMARK  168  A    between atoms: _401  and  _402
REMARK  169  A    between atoms: _404  and  _406
REMARK  170  A    between atoms: _406  and  _407
REMARK  171  A    between atoms: _409  and  _411
REMARK  172  A    between atoms: _411  and  _412
REMARK  173  A    between atoms: _414  and  _416
REMARK  174  A    between atoms: _416  and  _417
REMARK  175  A    between atoms: _416  and  _419
REMARK  176  A    between atoms: _419  and  _420
REMARK  177  A    between atoms: _423  and  _425
REMARK  178  A    between atoms: _425  and  _426
REMARK  179  A    between atoms: _425  and  _428
REMARK  180  A    between atoms: _428  and  _429
REMARK  181  A    between atoms: _432  and  _434
REMARK  182  A    between atoms: _434  and  _435
REMARK  183  A    between atoms: _434  and  _437
REMARK  184  A    between atoms: _437  and  _438
REMARK  185  A    between atoms: _440  and  _442
REMARK  186  A    between atoms: _442  and  _443
REMARK  187  A    between atoms: _442  and  _445
REMARK  188  A    between atoms: _445  and  _446
REMARK  189  A    between atoms: _456  and  _458
REMARK  190  A    between atoms: _458  and  _459
REMARK  191  A    between atoms: _461  and  _463
REMARK  192  A    between atoms: _463  and  _464
REMARK  193  A    between atoms: _463  and  _466
REMARK  194  A    between atoms: _466  and  _467
REMARK  195  A    between atoms: _467  and  _468
REMARK  196  A    between atoms: _471  and  _473
REMARK  197  A    between atoms: _473  and  _474
REMARK  198  A    between atoms: _476  and  _478
REMARK  199  A    between atoms: _478  and  _479
REMARK  200  A    between atoms: _478  and  _481
REMARK  201  A    between atoms: _481  and  _482
REMARK  202  A    between atoms: _483  and  _485
REMARK  203  A    between atoms: _485  and  _486
REMARK  204  A    between atoms: _489  and  _491
REMARK  205  A    between atoms: _491  and  _492
REMARK  206  A    between atoms: _491  and  _494
REMARK  207  A    between atoms: _494  and  _495
REMARK  208  A    between atoms: _495  and  _496
REMARK  209  A    between atoms: _501  and  _503
REMARK  210  A    between atoms: _503  and  _504
REMARK  211  A    between atoms: _503  and  _506
REMARK  212  A    between atoms: _506  and  _507
REMARK  213  A    between atoms: _507  and  _508
REMARK  214  A    between atoms: _508  and  _509
REMARK  215  A    between atoms: _519  and  _520
REMARK  216  A    between atoms: _525  and  _527
REMARK  217  A    between atoms: _527  and  _528
REMARK  218  A    between atoms: _530  and  _532
REMARK  219  A    between atoms: _532  and  _533
REMARK  220  A    between atoms: _532  and  _535
REMARK  221  A    between atoms: _538  and  _540
REMARK  222  A    between atoms: _540  and  _541
REMARK  223  A    between atoms: _540  and  _543
REMARK  224  A    between atoms: _543  and  _544
REMARK  225  A    between atoms: _549  and  _550
REMARK                            x       y       z     vdW  Elec       q    Type
REMARK                         _______ _______ _______ _____ _____    ______ ____
ROOT
ATOM      1  C   ILE A   1      42.236  -9.295  33.758  0.00  0.00    +0.202 C 
ATOM      2  O   ILE A   1      43.328  -8.973  34.217  0.00  0.00    -0.277 OA
ATOM      3  N   VAL A   2      41.637  -8.629  32.774  0.00  0.00    -0.301 N 
ATOM      4  H   VAL A   2      40.714  -8.967  32.434  0.00  0.00    +0.150 HD
ENDROOT
BRANCH   1   5
ATOM      5  CA  ILE A   1      41.485 -10.481  34.381  0.00  0.00    +0.013 C 
BRANCH   5   6
ATOM      6  N   ILE A   1      42.386 -11.629  34.350  0.00  0.00    +0.387 N 
ATOM      7  H1  ILE A   1      43.243 -11.410  34.897  0.00  0.00    -0.089 HD
ATOM      8  H2  ILE A   1      41.909 -12.454  34.766  0.00  0.00    -0.089 HD
ATOM      9  H3  ILE A   1      42.646 -11.837  33.365  0.00  0.00    -0.089 HD
ENDBRANCH   5   6
BRANCH   5  10
ATOM     10  CB  ILE A   1      41.054 -10.125  35.851  0.00  0.00    -0.011 C 
ATOM     11  CG2 ILE A   1      40.188  -8.813  35.903  0.00  0.00    -0.002 C 
BRANCH  10  12
ATOM     12  CG1 ILE A   1      40.330 -11.304  36.590  0.00  0.00    -0.002 C 
ATOM     13  CD1 ILE A   1      38.902 -11.636  36.045  0.00  0.00    -0.000 C 
ENDBRANCH  10  12
ENDBRANCH   5  10
ENDBRANCH   1   5
BRANCH   3  14
ATOM     14  CA  VAL A   2      42.224  -7.438  32.148  0.00  0.00    +0.137 C 
BRANCH  14  15
ATOM     15  CB  VAL A   2      41.928  -7.386  30.618  0.00  0.00    +0.026 C 
ATOM     16  CG2 VAL A   2      42.445  -6.075  29.983  0.00  0.00    +0.002 C 
ATOM     17  CG1 VAL A   2      42.483  -8.607  29.889  0.00  0.00    +0.002 C 
ENDBRANCH  14  15
BRANCH  14  18
ATOM     18  C   VAL A   2      41.614  -6.214  32.835  0.00  0.00    +0.227 C 
ATOM     19  O   VAL A   2      40.409  -6.178  33.041  0.00  0.00    -0.286 OA
ENDBRANCH  14  18
ENDBRANCH   3  14
TORSDOF 7
REMARK  Name = ../refined-set-2016/4ty6/4ty6_pocket.pdb
REMARK  225 active torsions:
REMARK  status: ('A' for Active; 'I' for Inactive)
REMARK    1  A    between atoms: _1  and  _5
REMARK    2  A    between atoms: _5  and  _6
REMARK    3  A    between atoms: _5  and  _8
REMARK    4  A    between atoms: _8  and  _9
REMARK    5  A    between atoms: _12  and  _14
REMARK    6  A    between atoms: _14  and  _15
REMARK    7  A    between atoms: _14  and  _17
REMARK    8  A    between atoms: _20  and  _22
REMARK    9  A    between atoms: _22  and  _23
REMARK   10  A    between atoms: _22  and  _25
REMARK   11  A    between atoms: _25  and  _26
REMARK   12  A    between atoms: _29  and  _31
REMARK   13  A    between atoms: _31  and  _32
REMARK   14  A    between atoms: _31  and  _34
REMARK   15  A    between atoms: _34  and  _35
REMARK   16  A    between atoms: _38  and  _40
REMARK   17  A    between atoms: _40  and  _41
REMARK   18  A    between atoms: _40  and  _43
REMARK   19  A    between atoms: _43  and  _44
REMARK   20  A    between atoms: _49  and  _51
REMARK   21  A    between atoms: _51  and  _52
REMARK   22  A    between atoms: _51  and  _54
REMARK   23  A    between atoms: _54  and  _55
REMARK   24  A    between atoms: _58  and  _60
REMARK   25  A    between atoms: _60  and  _61
REMARK   26  A    between atoms: _60  and  _63
REMARK   27  A    between atoms: _63  and  _64
REMARK   28  A    between atoms: _67  and  _69
REMARK   29  A    between atoms: _69  and  _70
REMARK   30  A    between atoms: _69  and  _72
REMARK   31  A    between atoms: _72  and  _73
REMARK   32  A    between atoms: _73  and  _74
REMARK   33  A    between atoms: _79  and  _81
REMARK   34  A    between atoms: _81  and  _82
REMARK   35  A    between atoms: _81  and  _84
REMARK   36  A    between atoms: _84  and  _85
REMARK   37  A    between atoms: _85  and  _86
REMARK   38  A    between atoms: _86  and  _87
REMARK   39  A    between atoms: _96  and  _98
REMARK   40  A    between atoms: _98  and  _99
REMARK   41  A    between atoms: _98  and  _101
REMARK   42  A    between atoms: _101  and  _102
REMARK   43  A    between atoms: _107  and  _109
REMARK   44  A    between atoms: _109  and  _110
REMARK   45  A    between atoms: _109  and  _112
REMARK   46  A    between atoms: _112  and  _113
REMARK   47  A    between atoms: _116  and  _118
REMARK   48  A    between atoms: _118  and  _119
REMARK   49  A    between atoms: _118  and  _121
REMARK   50  A    between atoms: _121  and  _122
REMARK   51  A    between atoms: _122  and  _157
REMARK   52  A    between atoms: _123  and  _125
REMARK   53  A    between atoms: _125  and  _126
REMARK   54  A    between atoms: _128  and  _130
REMARK   55  A    between atoms: _130  and  _131
REMARK   56  A    between atoms: _134  and  _136
REMARK   57  A    between atoms: _136  and  _137
REMARK   58  A    between atoms: _140  and  _142
REMARK   59  A    between atoms: _142  and  _143
REMARK   60  A    between atoms: _142  and  _145
REMARK   61  A    between atoms: _145  and  _146
REMARK   62  A    between atoms: _151  and  _153
REMARK   63  A    between atoms: _153  and  _154
REMARK   64  A    between atoms: _153  and  _156
REMARK   65  A    between atoms: _156  and  _157
REMARK   66  A    between atoms: _158  and  _160
REMARK   67  A    between atoms: _160  and  _161
REMARK   68  A    between atoms: _160  and  _163
REMARK   69  A    between atoms: _163  and  _164
REMARK   70  A    between atoms: _170  and  _172
REMARK   71  A    between atoms: _172  and  _173
REMARK   72  A    between atoms: _172  and  _175
REMARK   73  A    between atoms: _175  and  _176
REMARK   74  A    between atoms: _181  and  _182
REMARK   75  A    between atoms: _184  and  _186
REMARK   76  A    between atoms: _186  and  _187
REMARK   77  A    between atoms: _186  and  _189
REMARK   78  A    between atoms: _192  and  _194
REMARK   79  A    between atoms: _194  and  _195
REMARK   80  A    between atoms: _194  and  _197
REMARK   81  A    between atoms: _197  and  _198
REMARK   82  A    between atoms: _198  and  _199
REMARK   83  A    between atoms: _204  and  _206
REMARK   84  A    between atoms: _206  and  _207
REMARK   85  A    between atoms: _210  and  _212
REMARK   86  A    between atoms: _212  and  _213
REMARK   87  A    between atoms: _212  and  _215
REMARK   88  A    between atoms: _215  and  _216
REMARK   89  A    between atoms: _219  and  _221
REMARK   90  A    between atoms: _221  and  _222
REMARK   91  A    between atoms: _221  and  _224
REMARK   92  A    between atoms: _227  and  _229
REMARK   93  A    between atoms: _229  and  _230
REMARK   94  A    between atoms: _229  and  _232
REMARK   95  A    between atoms: _232  and  _233
REMARK   96  A    between atoms: _243  and  _245
REMARK   97  A    between atoms: _245  and  _246
REMARK   98  A    between atoms: _248  and  _250
REMARK   99  A    between atoms: _250  and  _251
REMARK  100  A    between atoms: _250  and  _253
REMARK  101  A    between atoms: _253  and  _254
REMARK  102  A    between atoms: _259  and  _260
REMARK  103  A    between atoms: _262  and  _264
REMARK  104  A    between atoms: _264  and  _265
REMARK  105  A    between atoms: _264  and  _267
REMARK  106  A    between atoms: _267  and  _268
REMARK  107  A    between atoms: _271  and  _273
REMARK  108  A    between atoms: _273  and  _274
REMARK  109  A    between atoms: _273  and  _276
REMARK  110  A    between atoms: _276  and  _277
REMARK  111  A    between atoms: _280  and  _282
REMARK  112  A    between atoms: _282  and  _283
REMARK  113  A    between atoms: _282  and  _285
REMARK  114  A    between atoms: _285  and  _286
REMARK  115  A    between atoms: _286  and  _287
REMARK  116  A    between atoms: _287  and  _288
REMARK  117  A    between atoms: _288  and  _289
REMARK  118  A    between atoms: _293  and  _295
REMARK  119  A    between atoms: _295  and  _296
REMARK  120  A    between atoms: _295  and  _298
REMARK  121  A    between atoms: _298  and  _299
REMARK  122  A    between atoms: _302  and  _304
REMARK  123  A    between atoms: _304  and  _305
REMARK  124  A    between atoms: _304  and  _307
REMARK  125  A    between atoms: _307  and  _308
REMARK  126  A    between atoms: _308  and  _309
REMARK  127  A    between atoms: _314  and  _316
REMARK  128  A    between atoms: _316  and  _317
REMARK  129  A    between atoms: _316  and  _319
REMARK  130  A    between atoms: _319  and  _320
REMARK  131  A    between atoms: _325  and  _326
REMARK  132  A    between atoms: _328  and  _330
REMARK  133  A    between atoms: _330  and  _331
REMARK  134  A    between atoms: _334  and  _336
REMARK  135  A    between atoms: _336  and  _337
REMARK  136  A    between atoms: _336  and  _339
REMARK  137  A    between atoms: _339  and  _340
REMARK  138  A    between atoms: _340  and  _341
REMARK  139  A    between atoms: _341  and  _342
REMARK  140  A    between atoms: _342  and  _343
REMARK  141  A    between atoms: _347  and  _349
REMARK  142  A    between atoms: _349  and  _350
REMARK  143  A    between atoms: _349  and  _352
REMARK  144  A    between atoms: _352  and  _353
REMARK  145  A    between atoms: _356  and  _358
REMARK  146  A    between atoms: _358  and  _359
REMARK  147  A    between atoms: _362  and  _364
REMARK  148  A    between atoms: _364  and  _365
REMARK  149  A    between atoms: _364  and  _367
REMARK  150  A    between atoms: _367  and  _368
REMARK  151  A    between atoms: _368  and  _482
REMARK  152  A    between atoms: _369  and  _371
REMARK  153  A    between atoms: _371  and  _372
REMARK  154  A    between atoms: _371  and  _374
REMARK  155  A    between atoms: _374  and  _375
REMARK  156  A    between atoms: _375  and  _376
REMARK  157  A    between atoms: _376  and  _377
REMARK  158  A    between atoms: _377  and  _378
REMARK  159  A    between atoms: _382  and  _384
REMARK  160  A    between atoms: _384  and  _385
REMARK  161  A    between atoms: _387  and  _389
REMARK  162  A    between atoms: _389  and  _390
REMARK  163  A    between atoms: _389  and  _392
REMARK  164  A    between atoms: _392  and  _393
REMARK  165  A    between atoms: _396  and  _398
REMARK  166  A    between atoms: _398  and  _399
REMARK  167  A    between atoms: _398  and  _401
REMARK  168  A    between atoms: _401  and  _402
REMARK  169  A    between atoms: _404  and  _406
REMARK  170  A    between atoms: _406  and  _407
REMARK  171  A    between atoms: _409  and  _411
REMARK  172  A    between atoms: _411  and  _412
REMARK  173  A    between atoms: _414  and  _416
REMARK  174  A    between atoms: _416  and  _417
REMARK  175  A    between atoms: _416  and  _419
REMARK  176  A    between atoms: _419  and  _420
REMARK  177  A    between atoms: _423  and  _425
REMARK  178  A    between atoms: _425  and  _426
REMARK  179  A    between atoms: _425  and  _428
REMARK  180  A    between atoms: _428  and  _429
REMARK  181  A    between atoms: _432  and  _434
REMARK  182  A    between atoms: _434  and  _435
REMARK  183  A    between atoms: _434  and  _437
REMARK  184  A    between atoms: _437  and  _438
REMARK  185  A    between atoms: _440  and  _442
REMARK  186  A    between atoms: _442  and  _443
REMARK  187  A    between atoms: _442  and  _445
REMARK  188  A    between atoms: _445  and  _446
REMARK  189  A    between atoms: _456  and  _458
REMARK  190  A    between atoms: _458  and  _459
REMARK  191  A    between atoms: _461  and  _463
REMARK  192  A    between atoms: _463  and  _464
REMARK  193  A    between atoms: _463  and  _466
REMARK  194  A    between atoms: _466  and  _467
REMARK  195  A    between atoms: _467  and  _468
REMARK  196  A    between atoms: _471  and  _473
REMARK  197  A    between atoms: _473  and  _474
REMARK  198  A    between atoms: _476  and  _478
REMARK  199  A    between atoms: _478  and  _479
REMARK  200  A    between atoms: _478  and  _481
REMARK  201  A    between atoms: _481  and  _482
REMARK  202  A    between atoms: _483  and  _485
REMARK  203  A    between atoms: _485  and  _486
REMARK  204  A    between atoms: _489  and  _491
REMARK  205  A    between atoms: _491  and  _492
REMARK  206  A    between atoms: _491  and  _494
REMARK  207  A    between atoms: _494  and  _495
REMARK  208  A    between atoms: _495  and  _496
REMARK  209  A    between atoms: _501  and  _503
REMARK  210  A    between atoms: _503  and  _504
REMARK  211  A    between atoms: _503  and  _506
REMARK  212  A    between atoms: _506  and  _507
REMARK  213  A    between atoms: _507  and  _508
REMARK  214  A    between atoms: _508  and  _509
REMARK  215  A    between atoms: _519  and  _520
REMARK  216  A    between atoms: _525  and  _527
REMARK  217  A    between atoms: _527  and  _528
REMARK  218  A    between atoms: _530  and  _532
REMARK  219  A    between atoms: _532  and  _533
REMARK  220  A    between atoms: _532  and  _535
REMARK  221  A    between atoms: _538  and  _540
REMARK  222  A    between atoms: _540  and  _541
REMARK  223  A    between atoms: _540  and  _543
REMARK  224  A    between atoms: _543  and  _544
REMARK  225  A    between atoms: _549  and  _550
REMARK                            x       y       z     vdW  Elec       q    Type
REMARK                         _______ _______ _______ _____ _____    ______ ____
ROOT
ATOM      1  C   LEU A   2      42.708 -26.096  39.448  0.00  0.00    +0.241 C 
ATOM      2  N   HIS A   3      43.516 -27.008  39.970  0.00  0.00    -0.297 N 
ATOM      3  H   HIS A   3      43.250 -27.463  40.867  0.00  0.00    +0.150 HD
ATOM      4  O   LEU A   2      42.988 -25.445  38.440  0.00  0.00    -0.273 OA
ENDROOT
BRANCH   2   5
ATOM      5  CA  HIS A   3      44.768 -27.393  39.324  0.00  0.00    +0.155 C 
BRANCH   5   6
ATOM      6  C   HIS A   3      44.632 -28.772  38.735  0.00  0.00    +0.241 C 
ATOM      7  O   HIS A   3      43.866 -29.606  39.234  0.00  0.00    -0.273 OA
ATOM      8  N   THR A   4      45.414 -29.033  37.691  0.00  0.00    -0.296 N 
ATOM      9  H   THR A   4      45.954 -28.256  37.260  0.00  0.00    +0.150 HD
BRANCH   8  10
ATOM     10  CA  THR A   4      45.538 -30.372  37.132  0.00  0.00    +0.164 C 
BRANCH  10  11
ATOM     11  CB  THR A   4      45.229 -30.403  35.614  0.00  0.00    +0.136 C 
ATOM     12  CG2 THR A   4      46.077 -29.398  34.803  0.00  0.00    +0.034 C 
BRANCH  11  13
ATOM     13  OG1 THR A   4      45.504 -31.727  35.166  0.00  0.00    -0.382 OA
ATOM     14  HG1 THR A   4      45.319 -31.791  34.196  0.00  0.00    +0.210 HD
ENDBRANCH  11  13
ENDBRANCH  10  11
BRANCH  10  15
ATOM     15  C   THR A   4      46.996 -30.769  37.442  0.00  0.00    +0.229 C 
ATOM     16  O   THR A   4      47.843 -29.871  37.489  0.00  0.00    -0.286 OA
ENDBRANCH  10  15
ENDBRANCH   8  10
ENDBRANCH   5   6
BRANCH   5  17
ATOM     17  CB  HIS A   3      45.913 -27.442  40.360  0.00  0.00    +0.076 C 
BRANCH  17  18
ATOM     18  CG  HIS A   3      46.491 -26.110  40.711  0.00  0.00    +0.082 A 
ATOM     19  ND1 HIS A   3      47.837 -25.970  40.989  0.00  0.00    -0.227 NA
ATOM     20  CE1 HIS A   3      48.020 -24.682  41.233  0.00  0.00    +0.199 A 
ATOM     21  NE2 HIS A   3      46.872 -23.997  41.138  0.00  0.00    -0.221 NA
ATOM     22  CD2 HIS A   3      45.889 -24.899  40.821  0.00  0.00    +0.115 A 
ENDBRANCH  17  18
ENDBRANCH   5  17
ENDBRANCH   2   5
BRANCH   1  23
ATOM     23  CA  LEU A   2      41.423 -25.818  40.212  0.00  0.00    +0.149 C 
BRANCH  23  26
ATOM     24  C   THR A   1      41.818 -23.942  41.748  0.00  0.00    +0.241 C 
ATOM     25  O   THR A   1      42.087 -24.680  42.701  0.00  0.00    -0.274 OA
ATOM     26  N   LEU A   2      41.451 -24.399  40.541  0.00  0.00    -0.297 N 
ATOM     27  H   LEU A   2      41.175 -23.712  39.810  0.00  0.00    +0.150 HD
BRANCH  24  28
ATOM     28  CA  THR A   1      41.822 -22.425  41.925  0.00  0.00    +0.172 C 
BRANCH  28  29
ATOM     29  CB  THR A   1      43.246 -21.807  42.061  0.00  0.00    +0.135 C 
ATOM     30  CG2 THR A   1      43.907 -22.085  43.408  0.00  0.00    +0.034 C 
BRANCH  29  31
ATOM     31  OG1 THR A   1      44.065 -22.336  41.007  0.00  0.00    -0.383 OA
ATOM     32  HG1 THR A   1      43.670 -22.095  40.132  0.00  0.00    +0.210 HD
ENDBRANCH  29  31
ENDBRANCH  28  29
BRANCH  28  33
ATOM     33  N   THR A   1      40.954 -22.171  43.058  0.00  0.00    -0.236 NA
ATOM     34  H   THR A   1      41.285 -22.461  44.000  0.00  0.00    +0.142 HD
ENDBRANCH  28  33
ENDBRANCH  24  28
ENDBRANCH  23  26
BRANCH  23  35
ATOM     35  CB  LEU A   2      40.173 -26.160  39.358  0.00  0.00    +0.029 C 
BRANCH  35  36
ATOM     36  CG  LEU A   2      40.076 -27.602  38.805  0.00  0.00    +0.002 C 
ATOM     37  CD2 LEU A   2      39.900 -28.633  39.931  0.00  0.00    +0.000 C 
ATOM     38  CD1 LEU A   2      38.868 -27.739  37.876  0.00  0.00    +0.000 C 
ENDBRANCH  35  36
ENDBRANCH  23  35
ENDBRANCH   1  23
TORSDOF 16
REMARK  Name = ../refined-set-2016/4ty6/4ty6_pocket.pdb
REMARK  225 active torsions:
REMARK  status: ('A' for Active; 'I' for Inactive)
REMARK    1  A    between atoms: _1  and  _5
REMARK    2  A    between atoms: _5  and  _6
REMARK    3  A    between atoms: _5  and  _8
REMARK    4  A    between atoms: _8  and  _9
REMARK    5  A    between atoms: _12  and  _14
REMARK    6  A    between atoms: _14  and  _15
REMARK    7  A    between atoms: _14  and  _17
REMARK    8  A    between atoms: _20  and  _22
REMARK    9  A    between atoms: _22  and  _23
REMARK   10  A    between atoms: _22  and  _25
REMARK   11  A    between atoms: _25  and  _26
REMARK   12  A    between atoms: _29  and  _31
REMARK   13  A    between atoms: _31  and  _32
REMARK   14  A    between atoms: _31  and  _34
REMARK   15  A    between atoms: _34  and  _35
REMARK   16  A    between atoms: _38  and  _40
REMARK   17  A    between atoms: _40  and  _41
REMARK   18  A    between atoms: _40  and  _43
REMARK   19  A    between atoms: _43  and  _44
REMARK   20  A    between atoms: _49  and  _51
REMARK   21  A    between atoms: _51  and  _52
REMARK   22  A    between atoms: _51  and  _54
REMARK   23  A    between atoms: _54  and  _55
REMARK   24  A    between atoms: _58  and  _60
REMARK   25  A    between atoms: _60  and  _61
REMARK   26  A    between atoms: _60  and  _63
REMARK   27  A    between atoms: _63  and  _64
REMARK   28  A    between atoms: _67  and  _69
REMARK   29  A    between atoms: _69  and  _70
REMARK   30  A    between atoms: _69  and  _72
REMARK   31  A    between atoms: _72  and  _73
REMARK   32  A    between atoms: _73  and  _74
REMARK   33  A    between atoms: _79  and  _81
REMARK   34  A    between atoms: _81  and  _82
REMARK   35  A    between atoms: _81  and  _84
REMARK   36  A    between atoms: _84  and  _85
REMARK   37  A    between atoms: _85  and  _86
REMARK   38  A    between atoms: _86  and  _87
REMARK   39  A    between atoms: _96  and  _98
REMARK   40  A    between atoms: _98  and  _99
REMARK   41  A    between atoms: _98  and  _101
REMARK   42  A    between atoms: _101  and  _102
REMARK   43  A    between atoms: _107  and  _109
REMARK   44  A    between atoms: _109  and  _110
REMARK   45  A    between atoms: _109  and  _112
REMARK   46  A    between atoms: _112  and  _113
REMARK   47  A    between atoms: _116  and  _118
REMARK   48  A    between atoms: _118  and  _119
REMARK   49  A    between atoms: _118  and  _121
REMARK   50  A    between atoms: _121  and  _122
REMARK   51  A    between atoms: _122  and  _157
REMARK   52  A    between atoms: _123  and  _125
REMARK   53  A    between atoms: _125  and  _126
REMARK   54  A    between atoms: _128  and  _130
REMARK   55  A    between atoms: _130  and  _131
REMARK   56  A    between atoms: _134  and  _136
REMARK   57  A    between atoms: _136  and  _137
REMARK   58  A    between atoms: _140  and  _142
REMARK   59  A    between atoms: _142  and  _143
REMARK   60  A    between atoms: _142  and  _145
REMARK   61  A    between atoms: _145  and  _146
REMARK   62  A    between atoms: _151  and  _153
REMARK   63  A    between atoms: _153  and  _154
REMARK   64  A    between atoms: _153  and  _156
REMARK   65  A    between atoms: _156  and  _157
REMARK   66  A    between atoms: _158  and  _160
REMARK   67  A    between atoms: _160  and  _161
REMARK   68  A    between atoms: _160  and  _163
REMARK   69  A    between atoms: _163  and  _164
REMARK   70  A    between atoms: _170  and  _172
REMARK   71  A    between atoms: _172  and  _173
REMARK   72  A    between atoms: _172  and  _175
REMARK   73  A    between atoms: _175  and  _176
REMARK   74  A    between atoms: _181  and  _182
REMARK   75  A    between atoms: _184  and  _186
REMARK   76  A    between atoms: _186  and  _187
REMARK   77  A    between atoms: _186  and  _189
REMARK   78  A    between atoms: _192  and  _194
REMARK   79  A    between atoms: _194  and  _195
REMARK   80  A    between atoms: _194  and  _197
REMARK   81  A    between atoms: _197  and  _198
REMARK   82  A    between atoms: _198  and  _199
REMARK   83  A    between atoms: _204  and  _206
REMARK   84  A    between atoms: _206  and  _207
REMARK   85  A    between atoms: _210  and  _212
REMARK   86  A    between atoms: _212  and  _213
REMARK   87  A    between atoms: _212  and  _215
REMARK   88  A    between atoms: _215  and  _216
REMARK   89  A    between atoms: _219  and  _221
REMARK   90  A    between atoms: _221  and  _222
REMARK   91  A    between atoms: _221  and  _224
REMARK   92  A    between atoms: _227  and  _229
REMARK   93  A    between atoms: _229  and  _230
REMARK   94  A    between atoms: _229  and  _232
REMARK   95  A    between atoms: _232  and  _233
REMARK   96  A    between atoms: _243  and  _245
REMARK   97  A    between atoms: _245  and  _246
REMARK   98  A    between atoms: _248  and  _250
REMARK   99  A    between atoms: _250  and  _251
REMARK  100  A    between atoms: _250  and  _253
REMARK  101  A    between atoms: _253  and  _254
REMARK  102  A    between atoms: _259  and  _260
REMARK  103  A    between atoms: _262  and  _264
REMARK  104  A    between atoms: _264  and  _265
REMARK  105  A    between atoms: _264  and  _267
REMARK  106  A    between atoms: _267  and  _268
REMARK  107  A    between atoms: _271  and  _273
REMARK  108  A    between atoms: _273  and  _274
REMARK  109  A    between atoms: _273  and  _276
REMARK  110  A    between atoms: _276  and  _277
REMARK  111  A    between atoms: _280  and  _282
REMARK  112  A    between atoms: _282  and  _283
REMARK  113  A    between atoms: _282  and  _285
REMARK  114  A    between atoms: _285  and  _286
REMARK  115  A    between atoms: _286  and  _287
REMARK  116  A    between atoms: _287  and  _288
REMARK  117  A    between atoms: _288  and  _289
REMARK  118  A    between atoms: _293  and  _295
REMARK  119  A    between atoms: _295  and  _296
REMARK  120  A    between atoms: _295  and  _298
REMARK  121  A    between atoms: _298  and  _299
REMARK  122  A    between atoms: _302  and  _304
REMARK  123  A    between atoms: _304  and  _305
REMARK  124  A    between atoms: _304  and  _307
REMARK  125  A    between atoms: _307  and  _308
REMARK  126  A    between atoms: _308  and  _309
REMARK  127  A    between atoms: _314  and  _316
REMARK  128  A    between atoms: _316  and  _317
REMARK  129  A    between atoms: _316  and  _319
REMARK  130  A    between atoms: _319  and  _320
REMARK  131  A    between atoms: _325  and  _326
REMARK  132  A    between atoms: _328  and  _330
REMARK  133  A    between atoms: _330  and  _331
REMARK  134  A    between atoms: _334  and  _336
REMARK  135  A    between atoms: _336  and  _337
REMARK  136  A    between atoms: _336  and  _339
REMARK  137  A    between atoms: _339  and  _340
REMARK  138  A    between atoms: _340  and  _341
REMARK  139  A    between atoms: _341  and  _342
REMARK  140  A    between atoms: _342  and  _343
REMARK  141  A    between atoms: _347  and  _349
REMARK  142  A    between atoms: _349  and  _350
REMARK  143  A    between atoms: _349  and  _352
REMARK  144  A    between atoms: _352  and  _353
REMARK  145  A    between atoms: _356  and  _358
REMARK  146  A    between atoms: _358  and  _359
REMARK  147  A    between atoms: _362  and  _364
REMARK  148  A    between atoms: _364  and  _365
REMARK  149  A    between atoms: _364  and  _367
REMARK  150  A    between atoms: _367  and  _368
REMARK  151  A    between atoms: _368  and  _482
REMARK  152  A    between atoms: _369  and  _371
REMARK  153  A    between atoms: _371  and  _372
REMARK  154  A    between atoms: _371  and  _374
REMARK  155  A    between atoms: _374  and  _375
REMARK  156  A    between atoms: _375  and  _376
REMARK  157  A    between atoms: _376  and  _377
REMARK  158  A    between atoms: _377  and  _378
REMARK  159  A    between atoms: _382  and  _384
REMARK  160  A    between atoms: _384  and  _385
REMARK  161  A    between atoms: _387  and  _389
REMARK  162  A    between atoms: _389  and  _390
REMARK  163  A    between atoms: _389  and  _392
REMARK  164  A    between atoms: _392  and  _393
REMARK  165  A    between atoms: _396  and  _398
REMARK  166  A    between atoms: _398  and  _399
REMARK  167  A    between atoms: _398  and  _401
REMARK  168  A    between atoms: _401  and  _402
REMARK  169  A    between atoms: _404  and  _406
REMARK  170  A    between atoms: _406  and  _407
REMARK  171  A    between atoms: _409  and  _411
REMARK  172  A    between atoms: _411  and  _412
REMARK  173  A    between atoms: _414  and  _416
REMARK  174  A    between atoms: _416  and  _417
REMARK  175  A    between atoms: _416  and  _419
REMARK  176  A    between atoms: _419  and  _420
REMARK  177  A    between atoms: _423  and  _425
REMARK  178  A    between atoms: _425  and  _426
REMARK  179  A    between atoms: _425  and  _428
REMARK  180  A    between atoms: _428  and  _429
REMARK  181  A    between atoms: _432  and  _434
REMARK  182  A    between atoms: _434  and  _435
REMARK  183  A    between atoms: _434  and  _437
REMARK  184  A    between atoms: _437  and  _438
REMARK  185  A    between atoms: _440  and  _442
REMARK  186  A    between atoms: _442  and  _443
REMARK  187  A    between atoms: _442  and  _445
REMARK  188  A    between atoms: _445  and  _446
REMARK  189  A    between atoms: _456  and  _458
REMARK  190  A    between atoms: _458  and  _459
REMARK  191  A    between atoms: _461  and  _463
REMARK  192  A    between atoms: _463  and  _464
REMARK  193  A    between atoms: _463  and  _466
REMARK  194  A    between atoms: _466  and  _467
REMARK  195  A    between atoms: _467  and  _468
REMARK  196  A    between atoms: _471  and  _473
REMARK  197  A    between atoms: _473  and  _474
REMARK  198  A    between atoms: _476  and  _478
REMARK  199  A    between atoms: _478  and  _479
REMARK  200  A    between atoms: _478  and  _481
REMARK  201  A    between atoms: _481  and  _482
REMARK  202  A    between atoms: _483  and  _485
REMARK  203  A    between atoms: _485  and  _486
REMARK  204  A    between atoms: _489  and  _491
REMARK  205  A    between atoms: _491  and  _492
REMARK  206  A    between atoms: _491  and  _494
REMARK  207  A    between atoms: _494  and  _495
REMARK  208  A    between atoms: _495  and  _496
REMARK  209  A    between atoms: _501  and  _503
REMARK  210  A    between atoms: _503  and  _504
REMARK  211  A    between atoms: _503  and  _506
REMARK  212  A    between atoms: _506  and  _507
REMARK  213  A    between atoms: _507  and  _508
REMARK  214  A    between atoms: _508  and  _509
REMARK  215  A    between atoms: _519  and  _520
REMARK  216  A    between atoms: _525  and  _527
REMARK  217  A    between atoms: _527  and  _528
REMARK  218  A    between atoms: _530  and  _532
REMARK  219  A    between atoms: _532  and  _533
REMARK  220  A    between atoms: _532  and  _535
REMARK  221  A    between atoms: _538  and  _540
REMARK  222  A    between atoms: _540  and  _541
REMARK  223  A    between atoms: _540  and  _543
REMARK  224  A    between atoms: _543  and  _544
REMARK  225  A    between atoms: _549  and  _550
REMARK                            x       y       z     vdW  Elec       q    Type
REMARK                         _______ _______ _______ _____ _____    ______ ____
ROOT
ATOM      1  CA  TYR A   6      40.377 -22.998  35.860  0.00  0.00    +0.160 C 
ENDROOT
BRANCH   1   2
ATOM      2  C   TYR A   6      40.079 -22.420  37.238  0.00  0.00    +0.242 C 
ATOM      3  O   TYR A   6      40.590 -22.934  38.236  0.00  0.00    -0.273 OA
ATOM      4  N   GLY A   7      39.165 -21.468  37.280  0.00  0.00    -0.296 N 
ATOM      5  H   GLY A   7      38.834 -21.053  36.386  0.00  0.00    +0.150 HD
BRANCH   4   6
ATOM      6  CA  GLY A   7      38.604 -20.978  38.526  0.00  0.00    +0.163 C 
BRANCH   6   7
ATOM      7  C   GLY A   7      37.379 -21.842  38.842  0.00  0.00    +0.229 C 
ATOM      8  O   GLY A   7      36.988 -22.712  38.049  0.00  0.00    -0.286 OA
ENDBRANCH   6   7
ENDBRANCH   4   6
ENDBRANCH   1   2
BRANCH   1  10
ATOM      9  C   PHE A   5      42.373 -24.061  34.835  0.00  0.00    +0.241 C 
ATOM     10  N   TYR A   6      41.611 -23.785  35.920  0.00  0.00    -0.296 N 
ATOM     11  H   TYR A   6      41.918 -24.151  36.844  0.00  0.00    +0.150 HD
ATOM     12  O   PHE A   5      42.164 -23.568  33.726  0.00  0.00    -0.273 OA
BRANCH   9  13
ATOM     13  CA  PHE A   5      43.506 -25.052  35.035  0.00  0.00    +0.149 C 
BRANCH  13  15
ATOM     14  C   CYS A   4      45.516 -24.178  36.092  0.00  0.00    +0.241 C 
ATOM     15  N   PHE A   5      44.301 -24.686  36.187  0.00  0.00    -0.297 N 
ATOM     16  H   PHE A   5      43.897 -24.830  37.134  0.00  0.00    +0.150 HD
ATOM     17  O   CYS A   4      46.079 -23.982  35.009  0.00  0.00    -0.273 OA
BRANCH  14  18
ATOM     18  CA  CYS A   4      46.218 -23.822  37.421  0.00  0.00    +0.155 C 
BRANCH  18  20
ATOM     19  C   HIS A   3      47.868 -25.650  37.204  0.00  0.00    +0.241 C 
ATOM     20  N   CYS A   4      47.583 -24.340  37.294  0.00  0.00    -0.297 N 
ATOM     21  H   CYS A   4      48.370 -23.660  37.272  0.00  0.00    +0.150 HD
ATOM     22  O   HIS A   3      47.016 -26.542  37.267  0.00  0.00    -0.273 OA
BRANCH  19  23
ATOM     23  CA  HIS A   3      49.330 -26.020  36.973  0.00  0.00    +0.149 C 
BRANCH  23  26
ATOM     24  C   ALA A   2      50.773 -27.845  37.726  0.00  0.00    +0.241 C 
ATOM     25  O   ALA A   2      51.772 -27.130  37.691  0.00  0.00    -0.273 OA
ATOM     26  N   HIS A   3      49.553 -27.404  37.385  0.00  0.00    -0.297 N 
ATOM     27  H   HIS A   3      48.748 -28.062  37.415  0.00  0.00    +0.150 HD
BRANCH  24  28
ATOM     28  CA  ALA A   2      50.861 -29.304  38.158  0.00  0.00    +0.149 C 
BRANCH  28  30
ATOM     29  C   ALA A   1      51.730 -30.366  36.161  0.00  0.00    +0.241 C 
ATOM     30  N   ALA A   2      51.898 -30.042  37.456  0.00  0.00    -0.297 N 
ATOM     31  H   ALA A   2      52.768 -30.319  37.954  0.00  0.00    +0.150 HD
ATOM     32  O   ALA A   1      50.745 -29.999  35.498  0.00  0.00    -0.274 OA
BRANCH  29  33
ATOM     33  CA  ALA A   1      52.834 -31.187  35.485  0.00  0.00    +0.172 C 
BRANCH  33  34
ATOM     34  N   ALA A   1      52.245 -31.790  34.279  0.00  0.00    -0.236 NA
ATOM     35  H   ALA A   1      51.749 -31.151  33.626  0.00  0.00    +0.142 HD
ENDBRANCH  33  34
BRANCH  33  36
ATOM     36  CB  ALA A   1      54.059 -30.311  35.160  0.00  0.00    +0.135 C 
ATOM     37  CG2 ALA A   1      55.171 -31.079  34.455  0.00  0.00    +0.034 C 
BRANCH  36  38
ATOM     38  OG1 ALA A   1      53.640 -29.205  34.366  0.00  0.00    -0.383 OA
ATOM     39  HG1 ALA A   1      54.423 -28.638  34.153  0.00  0.00    +0.210 HD
ENDBRANCH  36  38
ENDBRANCH  33  36
ENDBRANCH  29  33
ENDBRANCH  28  30
BRANCH  28  40
ATOM     40  CB  ALA A   2      50.959 -29.442  39.682  0.00  0.00    +0.039 C 
BRANCH  40  41
ATOM     41  CG  ALA A   2      49.688 -28.914  40.364  0.00  0.00    +0.087 C 
BRANCH  41  42
ATOM     42  CD  ALA A   2      49.698 -29.071  41.850  0.00  0.00    +0.219 C 
ATOM     43  NE2 ALA A   2      49.102 -28.125  42.551  0.00  0.00    -0.329 N 
ATOM     44 HE21 ALA A   2      48.998 -28.228  43.581  0.00  0.00    +0.145 HD
ATOM     45 HE22 ALA A   2      48.736 -27.276  42.074  0.00  0.00    +0.145 HD
ATOM     46  OE1 ALA A   2      50.141 -30.082  42.372  0.00  0.00    -0.275 OA
ENDBRANCH  41  42
ENDBRANCH  40  41
ENDBRANCH  28  40
ENDBRANCH  24  28
ENDBRANCH  23  26
BRANCH  23  47
ATOM     47  CB  HIS A   3      49.719 -25.817  35.480  0.00  0.00    +0.033 C 
BRANCH  47  48
ATOM     48  CG  HIS A   3      48.806 -26.525  34.481  0.00  0.00    +0.045 C 
BRANCH  48  49
ATOM     49  CD  HIS A   3      49.399 -26.617  33.085  0.00  0.00    +0.174 C 
BRANCH  49  50
ATOM     50  NE  HIS A   3      50.524 -27.555  33.022  0.00  0.00    -0.265 N 
ATOM     51  HE  HIS A   3      50.754 -28.095  33.880  0.00  0.00    +0.259 HD
ATOM     52  CZ  HIS A   3      51.270 -27.761  31.940  0.00  0.00    +0.342 C 
ATOM     53  NH2 HIS A   3      52.276 -28.623  31.975  0.00  0.00    -0.292 N 
ATOM     54 HH21 HIS A   3      52.486 -29.142  32.851  0.00  0.00    +0.255 HD
ATOM     55 HH22 HIS A   3      52.856 -28.780  31.126  0.00  0.00    +0.255 HD
ATOM     56  NH1 HIS A   3      51.015 -27.104  30.814  0.00  0.00    -0.292 N 
ATOM     57 HH11 HIS A   3      50.229 -26.424  30.775  0.00  0.00    +0.255 HD
ATOM     58 HH12 HIS A   3      51.602 -27.269  29.971  0.00  0.00    +0.255 HD
ENDBRANCH  49  50
ENDBRANCH  48  49
ENDBRANCH  47  48
ENDBRANCH  23  47
ENDBRANCH  19  23
ENDBRANCH  18  20
BRANCH  18  59
ATOM     59  CB  CYS A   4      46.278 -22.290  37.592  0.00  0.00    +0.076 C 
BRANCH  59  60
ATOM     60  CG  CYS A   4      44.974 -21.573  37.371  0.00  0.00    +0.082 A 
ATOM     61  ND1 CYS A   4      44.059 -21.407  38.396  0.00  0.00    -0.227 NA
ATOM     62  CE1 CYS A   4      43.038 -20.743  37.868  0.00  0.00    +0.199 A 
ATOM     63  NE2 CYS A   4      43.247 -20.467  36.578  0.00  0.00    -0.221 NA
ATOM     64  CD2 CYS A   4      44.487 -20.982  36.248  0.00  0.00    +0.115 A 
ENDBRANCH  59  60
ENDBRANCH  18  59
ENDBRANCH  14  18
ENDBRANCH  13  15
BRANCH  13  65
ATOM     65  CB  PHE A   5      42.932 -26.470  35.248  0.00  0.00    +0.029 C 
BRANCH  65  66
ATOM     66  CG  PHE A   5      42.059 -27.045  34.121  0.00  0.00    +0.002 C 
ATOM     67  CD2 PHE A   5      41.404 -28.356  34.559  0.00  0.00    +0.000 C 
ATOM     68  CD1 PHE A   5      42.870 -27.210  32.819  0.00  0.00    +0.000 C 
ENDBRANCH  65  66
ENDBRANCH  13  65
ENDBRANCH   9  13
ENDBRANCH   1  10
BRANCH   1  69
ATOM     69  CB  TYR A   6      39.226 -23.917  35.426  0.00  0.00    +0.098 C 
BRANCH  69  70
ATOM     70  SG  TYR A   6      39.006 -24.104  33.631  0.00  0.00    -0.080 S 
BRANCH  70  71
ATOM     71  SG  CYS A   4      37.120 -24.867  33.584  0.00  0.00    -0.080 S 
BRANCH  71  72
ATOM     72  CB  CYS A   4      37.349 -26.617  33.210  0.00  0.00    +0.098 C 
BRANCH  72  73
ATOM     73  CA  CYS A   4      37.625 -26.923  31.738  0.00  0.00    +0.160 C 
BRANCH  73  74
ATOM     74  N   CYS A   4      36.398 -26.735  30.936  0.00  0.00    -0.296 N 
ATOM     75  H   CYS A   4      35.556 -26.386  31.437  0.00  0.00    +0.150 HD
ATOM     76  C   HIS A   3      36.268 -26.974  29.612  0.00  0.00    +0.241 C 
ATOM     77  O   HIS A   3      37.200 -27.356  28.904  0.00  0.00    -0.273 OA
BRANCH  76  78
ATOM     78  CA  HIS A   3      34.878 -26.753  28.991  0.00  0.00    +0.155 C 
BRANCH  78  79
ATOM     79  N   HIS A   3      33.782 -26.749  29.982  0.00  0.00    -0.297 N 
ATOM     80  C   ALA A   2      33.487 -27.842  30.719  0.00  0.00    +0.241 C 
ATOM     81  O   ALA A   2      34.154 -28.868  30.650  0.00  0.00    -0.273 OA
ATOM     82  H   HIS A   3      33.223 -25.882  30.116  0.00  0.00    +0.150 HD
BRANCH  80  83
ATOM     83  CA  ALA A   2      32.260 -27.804  31.669  0.00  0.00    +0.149 C 
ATOM     84  CB  ALA A   2      31.001 -28.219  30.895  0.00  0.00    +0.031 C 
BRANCH  83  85
ATOM     85  N   ALA A   2      32.042 -26.481  32.252  0.00  0.00    -0.297 N 
ATOM     86  C   ALA A   1      32.924 -25.939  33.101  0.00  0.00    +0.238 C 
ATOM     87  O   ALA A   1      33.939 -26.528  33.480  0.00  0.00    -0.274 OA
ATOM     88  H   ALA A   2      31.184 -25.950  32.002  0.00  0.00    +0.150 HD
BRANCH  86  89
ATOM     89  CA  ALA A   1      32.618 -24.539  33.602  0.00  0.00    +0.145 C 
ATOM     90  CB  ALA A   1      33.334 -23.500  32.732  0.00  0.00    +0.028 C 
BRANCH  89  91
ATOM     91  N   ALA A   1      33.039 -24.411  35.003  0.00  0.00    -0.238 NA
ATOM     92  H   ALA A   1      34.026 -24.158  35.212  0.00  0.00    +0.142 HD
ENDBRANCH  89  91
ENDBRANCH  86  89
ENDBRANCH  83  85
ENDBRANCH  80  83
ENDBRANCH  78  79
BRANCH  78  93
ATOM     93  CB  HIS A   3      34.857 -25.493  28.094  0.00  0.00    +0.076 C 
BRANCH  93  94
ATOM     94  CG  HIS A   3      35.336 -24.259  28.795  0.00  0.00    +0.082 A 
ATOM     95  ND1 HIS A   3      34.450 -23.311  29.252  0.00  0.00    -0.227 NA
ATOM     96  CE1 HIS A   3      35.185 -22.385  29.861  0.00  0.00    +0.199 A 
ATOM     97  NE2 HIS A   3      36.478 -22.722  29.875  0.00  0.00    -0.221 NA
ATOM     98  CD2 HIS A   3      36.592 -23.909  29.169  0.00  0.00    +0.115 A 
ENDBRANCH  93  94
ENDBRANCH  78  93
ENDBRANCH  76  78
ENDBRANCH  73  74
BRANCH  73  99
ATOM     99  C   CYS A   4      38.154 -28.339  31.615  0.00  0.00    +0.242 C 
ATOM    100  O   CYS A   4      39.355 -28.567  31.765  0.00  0.00    -0.273 OA
ATOM    101  N   PHE A   5      37.218 -29.307  31.455  0.00  0.00    -0.297 N 
ATOM    102  H   PHE A   5      36.232 -29.018  31.292  0.00  0.00    +0.150 HD
BRANCH 101 103
ATOM    103  CA  PHE A   5      37.523 -30.736  31.500  0.00  0.00    +0.153 C 
BRANCH 103 104
ATOM    104  C   PHE A   5      37.779 -31.386  30.146  0.00  0.00    +0.241 C 
ATOM    105  O   PHE A   5      37.893 -32.619  30.088  0.00  0.00    -0.273 OA
ATOM    106  N   TYR A   6      38.038 -30.570  29.105  0.00  0.00    -0.298 N 
ATOM    107  H   TYR A   6      37.986 -29.540  29.236  0.00  0.00    +0.150 HD
BRANCH 106 108
ATOM    108  CA  TYR A   6      38.391 -31.113  27.794  0.00  0.00    +0.141 C 
BRANCH 108 109
ATOM    109  C   TYR A   6      39.633 -31.993  27.950  0.00  0.00    +0.227 C 
ATOM    110  O   TYR A   6      40.634 -31.547  28.524  0.00  0.00    -0.286 OA
ENDBRANCH 108 109
BRANCH 108 111
ATOM    111  CB  TYR A   6      38.643 -30.000  26.771  0.00  0.00    +0.054 C 
BRANCH 111 112
ATOM    112  CG  TYR A   6      38.982 -30.562  25.403  0.00  0.00    -0.020 A 
ATOM    113  CD2 TYR A   6      40.310 -30.723  25.001  0.00  0.00    -0.001 A 
ATOM    114  CE2 TYR A   6      40.629 -31.282  23.758  0.00  0.00    +0.036 A 
ATOM    115  CZ  TYR A   6      39.609 -31.694  22.911  0.00  0.00    +0.134 A 
ATOM    116  CE1 TYR A   6      38.283 -31.556  23.297  0.00  0.00    +0.036 A 
ATOM    117  CD1 TYR A   6      37.980 -31.025  24.552  0.00  0.00    -0.001 A 
BRANCH 115 118
ATOM    118  OH  TYR A   6      39.900 -32.224  21.681  0.00  0.00    -0.506 OA
ATOM    119  HH  TYR A   6      39.058 -32.461  21.217  0.00  0.00    +0.292 HD
ENDBRANCH 115 118
ENDBRANCH 111 112
ENDBRANCH 108 111
ENDBRANCH 106 108
ENDBRANCH 103 104
BRANCH 103 120
ATOM    120  CB  PHE A   5      36.424 -31.471  32.289  0.00  0.00    +0.055 C 
BRANCH 120 121
ATOM    121  CG  PHE A   5      36.283 -30.800  33.636  0.00  0.00    -0.020 A 
ATOM    122  CD2 PHE A   5      37.244 -30.986  34.626  0.00  0.00    -0.004 A 
ATOM    123  CE2 PHE A   5      37.179 -30.275  35.834  0.00  0.00    -0.000 A 
ATOM    124  CZ  PHE A   5      36.145 -29.390  36.055  0.00  0.00    -0.000 A 
ATOM    125  CE1 PHE A   5      35.174 -29.196  35.085  0.00  0.00    -0.000 A 
ATOM    126  CD1 PHE A   5      35.240 -29.903  33.882  0.00  0.00    -0.004 A 
ENDBRANCH 120 121
ENDBRANCH 103 120
ENDBRANCH 101 103
ENDBRANCH  73  99
ENDBRANCH  72  73
ENDBRANCH  71  72
ENDBRANCH  70  71
ENDBRANCH  69  70
ENDBRANCH   1  69
TORSDOF 51
REMARK  Name = ../refined-set-2016/4ty6/4ty6_pocket.pdb
REMARK  225 active torsions:
REMARK  status: ('A' for Active; 'I' for Inactive)
REMARK    1  A    between atoms: _1  and  _5
REMARK    2  A    between atoms: _5  and  _6
REMARK    3  A    between atoms: _5  and  _8
REMARK    4  A    between atoms: _8  and  _9
REMARK    5  A    between atoms: _12  and  _14
REMARK    6  A    between atoms: _14  and  _15
REMARK    7  A    between atoms: _14  and  _17
REMARK    8  A    between atoms: _20  and  _22
REMARK    9  A    between atoms: _22  and  _23
REMARK   10  A    between atoms: _22  and  _25
REMARK   11  A    between atoms: _25  and  _26
REMARK   12  A    between atoms: _29  and  _31
REMARK   13  A    between atoms: _31  and  _32
REMARK   14  A    between atoms: _31  and  _34
REMARK   15  A    between atoms: _34  and  _35
REMARK   16  A    between atoms: _38  and  _40
REMARK   17  A    between atoms: _40  and  _41
REMARK   18  A    between atoms: _40  and  _43
REMARK   19  A    between atoms: _43  and  _44
REMARK   20  A    between atoms: _49  and  _51
REMARK   21  A    between atoms: _51  and  _52
REMARK   22  A    between atoms: _51  and  _54
REMARK   23  A    between atoms: _54  and  _55
REMARK   24  A    between atoms: _58  and  _60
REMARK   25  A    between atoms: _60  and  _61
REMARK   26  A    between atoms: _60  and  _63
REMARK   27  A    between atoms: _63  and  _64
REMARK   28  A    between atoms: _67  and  _69
REMARK   29  A    between atoms: _69  and  _70
REMARK   30  A    between atoms: _69  and  _72
REMARK   31  A    between atoms: _72  and  _73
REMARK   32  A    between atoms: _73  and  _74
REMARK   33  A    between atoms: _79  and  _81
REMARK   34  A    between atoms: _81  and  _82
REMARK   35  A    between atoms: _81  and  _84
REMARK   36  A    between atoms: _84  and  _85
REMARK   37  A    between atoms: _85  and  _86
REMARK   38  A    between atoms: _86  and  _87
REMARK   39  A    between atoms: _96  and  _98
REMARK   40  A    between atoms: _98  and  _99
REMARK   41  A    between atoms: _98  and  _101
REMARK   42  A    between atoms: _101  and  _102
REMARK   43  A    between atoms: _107  and  _109
REMARK   44  A    between atoms: _109  and  _110
REMARK   45  A    between atoms: _109  and  _112
REMARK   46  A    between atoms: _112  and  _113
REMARK   47  A    between atoms: _116  and  _118
REMARK   48  A    between atoms: _118  and  _119
REMARK   49  A    between atoms: _118  and  _121
REMARK   50  A    between atoms: _121  and  _122
REMARK   51  A    between atoms: _122  and  _157
REMARK   52  A    between atoms: _123  and  _125
REMARK   53  A    between atoms: _125  and  _126
REMARK   54  A    between atoms: _128  and  _130
REMARK   55  A    between atoms: _130  and  _131
REMARK   56  A    between atoms: _134  and  _136
REMARK   57  A    between atoms: _136  and  _137
REMARK   58  A    between atoms: _140  and  _142
REMARK   59  A    between atoms: _142  and  _143
REMARK   60  A    between atoms: _142  and  _145
REMARK   61  A    between atoms: _145  and  _146
REMARK   62  A    between atoms: _151  and  _153
REMARK   63  A    between atoms: _153  and  _154
REMARK   64  A    between atoms: _153  and  _156
REMARK   65  A    between atoms: _156  and  _157
REMARK   66  A    between atoms: _158  and  _160
REMARK   67  A    between atoms: _160  and  _161
REMARK   68  A    between atoms: _160  and  _163
REMARK   69  A    between atoms: _163  and  _164
REMARK   70  A    between atoms: _170  and  _172
REMARK   71  A    between atoms: _172  and  _173
REMARK   72  A    between atoms: _172  and  _175
REMARK   73  A    between atoms: _175  and  _176
REMARK   74  A    between atoms: _181  and  _182
REMARK   75  A    between atoms: _184  and  _186
REMARK   76  A    between atoms: _186  and  _187
REMARK   77  A    between atoms: _186  and  _189
REMARK   78  A    between atoms: _192  and  _194
REMARK   79  A    between atoms: _194  and  _195
REMARK   80  A    between atoms: _194  and  _197
REMARK   81  A    between atoms: _197  and  _198
REMARK   82  A    between atoms: _198  and  _199
REMARK   83  A    between atoms: _204  and  _206
REMARK   84  A    between atoms: _206  and  _207
REMARK   85  A    between atoms: _210  and  _212
REMARK   86  A    between atoms: _212  and  _213
REMARK   87  A    between atoms: _212  and  _215
REMARK   88  A    between atoms: _215  and  _216
REMARK   89  A    between atoms: _219  and  _221
REMARK   90  A    between atoms: _221  and  _222
REMARK   91  A    between atoms: _221  and  _224
REMARK   92  A    between atoms: _227  and  _229
REMARK   93  A    between atoms: _229  and  _230
REMARK   94  A    between atoms: _229  and  _232
REMARK   95  A    between atoms: _232  and  _233
REMARK   96  A    between atoms: _243  and  _245
REMARK   97  A    between atoms: _245  and  _246
REMARK   98  A    between atoms: _248  and  _250
REMARK   99  A    between atoms: _250  and  _251
REMARK  100  A    between atoms: _250  and  _253
REMARK  101  A    between atoms: _253  and  _254
REMARK  102  A    between atoms: _259  and  _260
REMARK  103  A    between atoms: _262  and  _264
REMARK  104  A    between atoms: _264  and  _265
REMARK  105  A    between atoms: _264  and  _267
REMARK  106  A    between atoms: _267  and  _268
REMARK  107  A    between atoms: _271  and  _273
REMARK  108  A    between atoms: _273  and  _274
REMARK  109  A    between atoms: _273  and  _276
REMARK  110  A    between atoms: _276  and  _277
REMARK  111  A    between atoms: _280  and  _282
REMARK  112  A    between atoms: _282  and  _283
REMARK  113  A    between atoms: _282  and  _285
REMARK  114  A    between atoms: _285  and  _286
REMARK  115  A    between atoms: _286  and  _287
REMARK  116  A    between atoms: _287  and  _288
REMARK  117  A    between atoms: _288  and  _289
REMARK  118  A    between atoms: _293  and  _295
REMARK  119  A    between atoms: _295  and  _296
REMARK  120  A    between atoms: _295  and  _298
REMARK  121  A    between atoms: _298  and  _299
REMARK  122  A    between atoms: _302  and  _304
REMARK  123  A    between atoms: _304  and  _305
REMARK  124  A    between atoms: _304  and  _307
REMARK  125  A    between atoms: _307  and  _308
REMARK  126  A    between atoms: _308  and  _309
REMARK  127  A    between atoms: _314  and  _316
REMARK  128  A    between atoms: _316  and  _317
REMARK  129  A    between atoms: _316  and  _319
REMARK  130  A    between atoms: _319  and  _320
REMARK  131  A    between atoms: _325  and  _326
REMARK  132  A    between atoms: _328  and  _330
REMARK  133  A    between atoms: _330  and  _331
REMARK  134  A    between atoms: _334  and  _336
REMARK  135  A    between atoms: _336  and  _337
REMARK  136  A    between atoms: _336  and  _339
REMARK  137  A    between atoms: _339  and  _340
REMARK  138  A    between atoms: _340  and  _341
REMARK  139  A    between atoms: _341  and  _342
REMARK  140  A    between atoms: _342  and  _343
REMARK  141  A    between atoms: _347  and  _349
REMARK  142  A    between atoms: _349  and  _350
REMARK  143  A    between atoms: _349  and  _352
REMARK  144  A    between atoms: _352  and  _353
REMARK  145  A    between atoms: _356  and  _358
REMARK  146  A    between atoms: _358  and  _359
REMARK  147  A    between atoms: _362  and  _364
REMARK  148  A    between atoms: _364  and  _365
REMARK  149  A    between atoms: _364  and  _367
REMARK  150  A    between atoms: _367  and  _368
REMARK  151  A    between atoms: _368  and  _482
REMARK  152  A    between atoms: _369  and  _371
REMARK  153  A    between atoms: _371  and  _372
REMARK  154  A    between atoms: _371  and  _374
REMARK  155  A    between atoms: _374  and  _375
REMARK  156  A    between atoms: _375  and  _376
REMARK  157  A    between atoms: _376  and  _377
REMARK  158  A    between atoms: _377  and  _378
REMARK  159  A    between atoms: _382  and  _384
REMARK  160  A    between atoms: _384  and  _385
REMARK  161  A    between atoms: _387  and  _389
REMARK  162  A    between atoms: _389  and  _390
REMARK  163  A    between atoms: _389  and  _392
REMARK  164  A    between atoms: _392  and  _393
REMARK  165  A    between atoms: _396  and  _398
REMARK  166  A    between atoms: _398  and  _399
REMARK  167  A    between atoms: _398  and  _401
REMARK  168  A    between atoms: _401  and  _402
REMARK  169  A    between atoms: _404  and  _406
REMARK  170  A    between atoms: _406  and  _407
REMARK  171  A    between atoms: _409  and  _411
REMARK  172  A    between atoms: _411  and  _412
REMARK  173  A    between atoms: _414  and  _416
REMARK  174  A    between atoms: _416  and  _417
REMARK  175  A    between atoms: _416  and  _419
REMARK  176  A    between atoms: _419  and  _420
REMARK  177  A    between atoms: _423  and  _425
REMARK  178  A    between atoms: _425  and  _426
REMARK  179  A    between atoms: _425  and  _428
REMARK  180  A    between atoms: _428  and  _429
REMARK  181  A    between atoms: _432  and  _434
REMARK  182  A    between atoms: _434  and  _435
REMARK  183  A    between atoms: _434  and  _437
REMARK  184  A    between atoms: _437  and  _438
REMARK  185  A    between atoms: _440  and  _442
REMARK  186  A    between atoms: _442  and  _443
REMARK  187  A    between atoms: _442  and  _445
REMARK  188  A    between atoms: _445  and  _446
REMARK  189  A    between atoms: _456  and  _458
REMARK  190  A    between atoms: _458  and  _459
REMARK  191  A    between atoms: _461  and  _463
REMARK  192  A    between atoms: _463  and  _464
REMARK  193  A    between atoms: _463  and  _466
REMARK  194  A    between atoms: _466  and  _467
REMARK  195  A    between atoms: _467  and  _468
REMARK  196  A    between atoms: _471  and  _473
REMARK  197  A    between atoms: _473  and  _474
REMARK  198  A    between atoms: _476  and  _478
REMARK  199  A    between atoms: _478  and  _479
REMARK  200  A    between atoms: _478  and  _481
REMARK  201  A    between atoms: _481  and  _482
REMARK  202  A    between atoms: _483  and  _485
REMARK  203  A    between atoms: _485  and  _486
REMARK  204  A    between atoms: _489  and  _491
REMARK  205  A    between atoms: _491  and  _492
REMARK  206  A    between atoms: _491  and  _494
REMARK  207  A    between atoms: _494  and  _495
REMARK  208  A    between atoms: _495  and  _496
REMARK  209  A    between atoms: _501  and  _503
REMARK  210  A    between atoms: _503  and  _504
REMARK  211  A    between atoms: _503  and  _506
REMARK  212  A    between atoms: _506  and  _507
REMARK  213  A    between atoms: _507  and  _508
REMARK  214  A    between atoms: _508  and  _509
REMARK  215  A    between atoms: _519  and  _520
REMARK  216  A    between atoms: _525  and  _527
REMARK  217  A    between atoms: _527  and  _528
REMARK  218  A    between atoms: _530  and  _532
REMARK  219  A    between atoms: _532  and  _533
REMARK  220  A    between atoms: _532  and  _535
REMARK  221  A    between atoms: _538  and  _540
REMARK  222  A    between atoms: _540  and  _541
REMARK  223  A    between atoms: _540  and  _543
REMARK  224  A    between atoms: _543  and  _544
REMARK  225  A    between atoms: _549  and  _550
REMARK                            x       y       z     vdW  Elec       q    Type
REMARK                         _______ _______ _______ _____ _____    ______ ____
ROOT
ATOM      1  CA  VAL A   1      40.465 -34.752  31.490  0.00  0.00    +0.133 C 
ENDROOT
BRANCH   1   2
ATOM      2  CB  VAL A   1      40.014 -33.723  32.588  0.00  0.00    +0.023 C 
ATOM      3  CG2 VAL A   1      40.053 -34.339  33.991  0.00  0.00    +0.002 C 
ATOM      4  CG1 VAL A   1      40.872 -32.456  32.545  0.00  0.00    +0.002 C 
ENDBRANCH   1   2
BRANCH   1   5
ATOM      5  N   VAL A   1      40.220 -34.297  30.102  0.00  0.00    -0.239 NA
ATOM      6  H   VAL A   1      39.415 -33.664  29.921  0.00  0.00    +0.142 HD
ENDBRANCH   1   5
BRANCH   1   7
ATOM      7  C   VAL A   1      39.742 -36.097  31.584  0.00  0.00    +0.224 C 
ATOM      8  O   VAL A   1      38.516 -36.149  31.550  0.00  0.00    -0.287 OA
ENDBRANCH   1   7
TORSDOF 3
REMARK  Name = ../refined-set-2016/4ty6/4ty6_pocket.pdb
REMARK  225 active torsions:
REMARK  status: ('A' for Active; 'I' for Inactive)
REMARK    1  A    between atoms: _1  and  _5
REMARK    2  A    between atoms: _5  and  _6
REMARK    3  A    between atoms: _5  and  _8
REMARK    4  A    between atoms: _8  and  _9
REMARK    5  A    between atoms: _12  and  _14
REMARK    6  A    between atoms: _14  and  _15
REMARK    7  A    between atoms: _14  and  _17
REMARK    8  A    between atoms: _20  and  _22
REMARK    9  A    between atoms: _22  and  _23
REMARK   10  A    between atoms: _22  and  _25
REMARK   11  A    between atoms: _25  and  _26
REMARK   12  A    between atoms: _29  and  _31
REMARK   13  A    between atoms: _31  and  _32
REMARK   14  A    between atoms: _31  and  _34
REMARK   15  A    between atoms: _34  and  _35
REMARK   16  A    between atoms: _38  and  _40
REMARK   17  A    between atoms: _40  and  _41
REMARK   18  A    between atoms: _40  and  _43
REMARK   19  A    between atoms: _43  and  _44
REMARK   20  A    between atoms: _49  and  _51
REMARK   21  A    between atoms: _51  and  _52
REMARK   22  A    between atoms: _51  and  _54
REMARK   23  A    between atoms: _54  and  _55
REMARK   24  A    between atoms: _58  and  _60
REMARK   25  A    between atoms: _60  and  _61
REMARK   26  A    between atoms: _60  and  _63
REMARK   27  A    between atoms: _63  and  _64
REMARK   28  A    between atoms: _67  and  _69
REMARK   29  A    between atoms: _69  and  _70
REMARK   30  A    between atoms: _69  and  _72
REMARK   31  A    between atoms: _72  and  _73
REMARK   32  A    between atoms: _73  and  _74
REMARK   33  A    between atoms: _79  and  _81
REMARK   34  A    between atoms: _81  and  _82
REMARK   35  A    between atoms: _81  and  _84
REMARK   36  A    between atoms: _84  and  _85
REMARK   37  A    between atoms: _85  and  _86
REMARK   38  A    between atoms: _86  and  _87
REMARK   39  A    between atoms: _96  and  _98
REMARK   40  A    between atoms: _98  and  _99
REMARK   41  A    between atoms: _98  and  _101
REMARK   42  A    between atoms: _101  and  _102
REMARK   43  A    between atoms: _107  and  _109
REMARK   44  A    between atoms: _109  and  _110
REMARK   45  A    between atoms: _109  and  _112
REMARK   46  A    between atoms: _112  and  _113
REMARK   47  A    between atoms: _116  and  _118
REMARK   48  A    between atoms: _118  and  _119
REMARK   49  A    between atoms: _118  and  _121
REMARK   50  A    between atoms: _121  and  _122
REMARK   51  A    between atoms: _122  and  _157
REMARK   52  A    between atoms: _123  and  _125
REMARK   53  A    between atoms: _125  and  _126
REMARK   54  A    between atoms: _128  and  _130
REMARK   55  A    between atoms: _130  and  _131
REMARK   56  A    between atoms: _134  and  _136
REMARK   57  A    between atoms: _136  and  _137
REMARK   58  A    between atoms: _140  and  _142
REMARK   59  A    between atoms: _142  and  _143
REMARK   60  A    between atoms: _142  and  _145
REMARK   61  A    between atoms: _145  and  _146
REMARK   62  A    between atoms: _151  and  _153
REMARK   63  A    between atoms: _153  and  _154
REMARK   64  A    between atoms: _153  and  _156
REMARK   65  A    between atoms: _156  and  _157
REMARK   66  A    between atoms: _158  and  _160
REMARK   67  A    between atoms: _160  and  _161
REMARK   68  A    between atoms: _160  and  _163
REMARK   69  A    between atoms: _163  and  _164
REMARK   70  A    between atoms: _170  and  _172
REMARK   71  A    between atoms: _172  and  _173
REMARK   72  A    between atoms: _172  and  _175
REMARK   73  A    between atoms: _175  and  _176
REMARK   74  A    between atoms: _181  and  _182
REMARK   75  A    between atoms: _184  and  _186
REMARK   76  A    between atoms: _186  and  _187
REMARK   77  A    between atoms: _186  and  _189
REMARK   78  A    between atoms: _192  and  _194
REMARK   79  A    between atoms: _194  and  _195
REMARK   80  A    between atoms: _194  and  _197
REMARK   81  A    between atoms: _197  and  _198
REMARK   82  A    between atoms: _198  and  _199
REMARK   83  A    between atoms: _204  and  _206
REMARK   84  A    between atoms: _206  and  _207
REMARK   85  A    between atoms: _210  and  _212
REMARK   86  A    between atoms: _212  and  _213
REMARK   87  A    between atoms: _212  and  _215
REMARK   88  A    between atoms: _215  and  _216
REMARK   89  A    between atoms: _219  and  _221
REMARK   90  A    between atoms: _221  and  _222
REMARK   91  A    between atoms: _221  and  _224
REMARK   92  A    between atoms: _227  and  _229
REMARK   93  A    between atoms: _229  and  _230
REMARK   94  A    between atoms: _229  and  _232
REMARK   95  A    between atoms: _232  and  _233
REMARK   96  A    between atoms: _243  and  _245
REMARK   97  A    between atoms: _245  and  _246
REMARK   98  A    between atoms: _248  and  _250
REMARK   99  A    between atoms: _250  and  _251
REMARK  100  A    between atoms: _250  and  _253
REMARK  101  A    between atoms: _253  and  _254
REMARK  102  A    between atoms: _259  and  _260
REMARK  103  A    between atoms: _262  and  _264
REMARK  104  A    between atoms: _264  and  _265
REMARK  105  A    between atoms: _264  and  _267
REMARK  106  A    between atoms: _267  and  _268
REMARK  107  A    between atoms: _271  and  _273
REMARK  108  A    between atoms: _273  and  _274
REMARK  109  A    between atoms: _273  and  _276
REMARK  110  A    between atoms: _276  and  _277
REMARK  111  A    between atoms: _280  and  _282
REMARK  112  A    between atoms: _282  and  _283
REMARK  113  A    between atoms: _282  and  _285
REMARK  114  A    between atoms: _285  and  _286
REMARK  115  A    between atoms: _286  and  _287
REMARK  116  A    between atoms: _287  and  _288
REMARK  117  A    between atoms: _288  and  _289
REMARK  118  A    between atoms: _293  and  _295
REMARK  119  A    between atoms: _295  and  _296
REMARK  120  A    between atoms: _295  and  _298
REMARK  121  A    between atoms: _298  and  _299
REMARK  122  A    between atoms: _302  and  _304
REMARK  123  A    between atoms: _304  and  _305
REMARK  124  A    between atoms: _304  and  _307
REMARK  125  A    between atoms: _307  and  _308
REMARK  126  A    between atoms: _308  and  _309
REMARK  127  A    between atoms: _314  and  _316
REMARK  128  A    between atoms: _316  and  _317
REMARK  129  A    between atoms: _316  and  _319
REMARK  130  A    between atoms: _319  and  _320
REMARK  131  A    between atoms: _325  and  _326
REMARK  132  A    between atoms: _328  and  _330
REMARK  133  A    between atoms: _330  and  _331
REMARK  134  A    between atoms: _334  and  _336
REMARK  135  A    between atoms: _336  and  _337
REMARK  136  A    between atoms: _336  and  _339
REMARK  137  A    between atoms: _339  and  _340
REMARK  138  A    between atoms: _340  and  _341
REMARK  139  A    between atoms: _341  and  _342
REMARK  140  A    between atoms: _342  and  _343
REMARK  141  A    between atoms: _347  and  _349
REMARK  142  A    between atoms: _349  and  _350
REMARK  143  A    between atoms: _349  and  _352
REMARK  144  A    between atoms: _352  and  _353
REMARK  145  A    between atoms: _356  and  _358
REMARK  146  A    between atoms: _358  and  _359
REMARK  147  A    between atoms: _362  and  _364
REMARK  148  A    between atoms: _364  and  _365
REMARK  149  A    between atoms: _364  and  _367
REMARK  150  A    between atoms: _367  and  _368
REMARK  151  A    between atoms: _368  and  _482
REMARK  152  A    between atoms: _369  and  _371
REMARK  153  A    between atoms: _371  and  _372
REMARK  154  A    between atoms: _371  and  _374
REMARK  155  A    between atoms: _374  and  _375
REMARK  156  A    between atoms: _375  and  _376
REMARK  157  A    between atoms: _376  and  _377
REMARK  158  A    between atoms: _377  and  _378
REMARK  159  A    between atoms: _382  and  _384
REMARK  160  A    between atoms: _384  and  _385
REMARK  161  A    between atoms: _387  and  _389
REMARK  162  A    between atoms: _389  and  _390
REMARK  163  A    between atoms: _389  and  _392
REMARK  164  A    between atoms: _392  and  _393
REMARK  165  A    between atoms: _396  and  _398
REMARK  166  A    between atoms: _398  and  _399
REMARK  167  A    between atoms: _398  and  _401
REMARK  168  A    between atoms: _401  and  _402
REMARK  169  A    between atoms: _404  and  _406
REMARK  170  A    between atoms: _406  and  _407
REMARK  171  A    between atoms: _409  and  _411
REMARK  172  A    between atoms: _411  and  _412
REMARK  173  A    between atoms: _414  and  _416
REMARK  174  A    between atoms: _416  and  _417
REMARK  175  A    between atoms: _416  and  _419
REMARK  176  A    between atoms: _419  and  _420
REMARK  177  A    between atoms: _423  and  _425
REMARK  178  A    between atoms: _425  and  _426
REMARK  179  A    between atoms: _425  and  _428
REMARK  180  A    between atoms: _428  and  _429
REMARK  181  A    between atoms: _432  and  _434
REMARK  182  A    between atoms: _434  and  _435
REMARK  183  A    between atoms: _434  and  _437
REMARK  184  A    between atoms: _437  and  _438
REMARK  185  A    between atoms: _440  and  _442
REMARK  186  A    between atoms: _442  and  _443
REMARK  187  A    between atoms: _442  and  _445
REMARK  188  A    between atoms: _445  and  _446
REMARK  189  A    between atoms: _456  and  _458
REMARK  190  A    between atoms: _458  and  _459
REMARK  191  A    between atoms: _461  and  _463
REMARK  192  A    between atoms: _463  and  _464
REMARK  193  A    between atoms: _463  and  _466
REMARK  194  A    between atoms: _466  and  _467
REMARK  195  A    between atoms: _467  and  _468
REMARK  196  A    between atoms: _471  and  _473
REMARK  197  A    between atoms: _473  and  _474
REMARK  198  A    between atoms: _476  and  _478
REMARK  199  A    between atoms: _478  and  _479
REMARK  200  A    between atoms: _478  and  _481
REMARK  201  A    between atoms: _481  and  _482
REMARK  202  A    between atoms: _483  and  _485
REMARK  203  A    between atoms: _485  and  _486
REMARK  204  A    between atoms: _489  and  _491
REMARK  205  A    between atoms: _491  and  _492
REMARK  206  A    between atoms: _491  and  _494
REMARK  207  A    between atoms: _494  and  _495
REMARK  208  A    between atoms: _495  and  _496
REMARK  209  A    between atoms: _501  and  _503
REMARK  210  A    between atoms: _503  and  _504
REMARK  211  A    between atoms: _503  and  _506
REMARK  212  A    between atoms: _506  and  _507
REMARK  213  A    between atoms: _507  and  _508
REMARK  214  A    between atoms: _508  and  _509
REMARK  215  A    between atoms: _519  and  _520
REMARK  216  A    between atoms: _525  and  _527
REMARK  217  A    between atoms: _527  and  _528
REMARK  218  A    between atoms: _530  and  _532
REMARK  219  A    between atoms: _532  and  _533
REMARK  220  A    between atoms: _532  and  _535
REMARK  221  A    between atoms: _538  and  _540
REMARK  222  A    between atoms: _540  and  _541
REMARK  223  A    between atoms: _540  and  _543
REMARK  224  A    between atoms: _543  and  _544
REMARK  225  A    between atoms: _549  and  _550
REMARK                            x       y       z     vdW  Elec       q    Type
REMARK                         _______ _______ _______ _____ _____    ______ ____
ROOT
ATOM      1  CB  GLN A   1      49.446 -18.926  42.055  0.00  0.00    +0.035 C 
ENDROOT
BRANCH   1   2
ATOM      2  CA  GLN A   1      49.314 -18.944  43.599  0.00  0.00    +0.134 C 
BRANCH   2   3
ATOM      3  N   GLN A   1      48.934 -17.622  44.112  0.00  0.00    -0.239 NA
ATOM      4  H   GLN A   1      48.806 -16.843  43.435  0.00  0.00    +0.142 HD
ENDBRANCH   2   3
BRANCH   2   5
ATOM      5  C   GLN A   1      50.628 -19.445  44.249  0.00  0.00    +0.224 C 
ATOM      6  O   GLN A   1      50.792 -20.646  44.420  0.00  0.00    -0.287 OA
ENDBRANCH   2   5
ENDBRANCH   1   2
BRANCH   1   7
ATOM      7  CG  GLN A   1      48.113 -18.744  41.307  0.00  0.00    +0.087 C 
BRANCH   7   8
ATOM      8  CD  GLN A   1      47.275 -20.001  41.271  0.00  0.00    +0.219 C 
ATOM      9  OE1 GLN A   1      47.786 -21.130  41.295  0.00  0.00    -0.275 OA
ATOM     10  NE2 GLN A   1      45.972 -19.839  41.136  0.00  0.00    -0.329 N 
ATOM     11 HE21 GLN A   1      45.566 -18.882  41.119  0.00  0.00    +0.145 HD
ATOM     12 HE22 GLN A   1      45.351 -20.669  41.047  0.00  0.00    +0.145 HD
ENDBRANCH   7   8
ENDBRANCH   1   7
TORSDOF 5
REMARK  Name = ../refined-set-2016/4ty6/4ty6_pocket.pdb
REMARK  225 active torsions:
REMARK  status: ('A' for Active; 'I' for Inactive)
REMARK    1  A    between atoms: _1  and  _5
REMARK    2  A    between atoms: _5  and  _6
REMARK    3  A    between atoms: _5  and  _8
REMARK    4  A    between atoms: _8  and  _9
REMARK    5  A    between atoms: _12  and  _14
REMARK    6  A    between atoms: _14  and  _15
REMARK    7  A    between atoms: _14  and  _17
REMARK    8  A    between atoms: _20  and  _22
REMARK    9  A    between atoms: _22  and  _23
REMARK   10  A    between atoms: _22  and  _25
REMARK   11  A    between atoms: _25  and  _26
REMARK   12  A    between atoms: _29  and  _31
REMARK   13  A    between atoms: _31  and  _32
REMARK   14  A    between atoms: _31  and  _34
REMARK   15  A    between atoms: _34  and  _35
REMARK   16  A    between atoms: _38  and  _40
REMARK   17  A    between atoms: _40  and  _41
REMARK   18  A    between atoms: _40  and  _43
REMARK   19  A    between atoms: _43  and  _44
REMARK   20  A    between atoms: _49  and  _51
REMARK   21  A    between atoms: _51  and  _52
REMARK   22  A    between atoms: _51  and  _54
REMARK   23  A    between atoms: _54  and  _55
REMARK   24  A    between atoms: _58  and  _60
REMARK   25  A    between atoms: _60  and  _61
REMARK   26  A    between atoms: _60  and  _63
REMARK   27  A    between atoms: _63  and  _64
REMARK   28  A    between atoms: _67  and  _69
REMARK   29  A    between atoms: _69  and  _70
REMARK   30  A    between atoms: _69  and  _72
REMARK   31  A    between atoms: _72  and  _73
REMARK   32  A    between atoms: _73  and  _74
REMARK   33  A    between atoms: _79  and  _81
REMARK   34  A    between atoms: _81  and  _82
REMARK   35  A    between atoms: _81  and  _84
REMARK   36  A    between atoms: _84  and  _85
REMARK   37  A    between atoms: _85  and  _86
REMARK   38  A    between atoms: _86  and  _87
REMARK   39  A    between atoms: _96  and  _98
REMARK   40  A    between atoms: _98  and  _99
REMARK   41  A    between atoms: _98  and  _101
REMARK   42  A    between atoms: _101  and  _102
REMARK   43  A    between atoms: _107  and  _109
REMARK   44  A    between atoms: _109  and  _110
REMARK   45  A    between atoms: _109  and  _112
REMARK   46  A    between atoms: _112  and  _113
REMARK   47  A    between atoms: _116  and  _118
REMARK   48  A    between atoms: _118  and  _119
REMARK   49  A    between atoms: _118  and  _121
REMARK   50  A    between atoms: _121  and  _122
REMARK   51  A    between atoms: _122  and  _157
REMARK   52  A    between atoms: _123  and  _125
REMARK   53  A    between atoms: _125  and  _126
REMARK   54  A    between atoms: _128  and  _130
REMARK   55  A    between atoms: _130  and  _131
REMARK   56  A    between atoms: _134  and  _136
REMARK   57  A    between atoms: _136  and  _137
REMARK   58  A    between atoms: _140  and  _142
REMARK   59  A    between atoms: _142  and  _143
REMARK   60  A    between atoms: _142  and  _145
REMARK   61  A    between atoms: _145  and  _146
REMARK   62  A    between atoms: _151  and  _153
REMARK   63  A    between atoms: _153  and  _154
REMARK   64  A    between atoms: _153  and  _156
REMARK   65  A    between atoms: _156  and  _157
REMARK   66  A    between atoms: _158  and  _160
REMARK   67  A    between atoms: _160  and  _161
REMARK   68  A    between atoms: _160  and  _163
REMARK   69  A    between atoms: _163  and  _164
REMARK   70  A    between atoms: _170  and  _172
REMARK   71  A    between atoms: _172  and  _173
REMARK   72  A    between atoms: _172  and  _175
REMARK   73  A    between atoms: _175  and  _176
REMARK   74  A    between atoms: _181  and  _182
REMARK   75  A    between atoms: _184  and  _186
REMARK   76  A    between atoms: _186  and  _187
REMARK   77  A    between atoms: _186  and  _189
REMARK   78  A    between atoms: _192  and  _194
REMARK   79  A    between atoms: _194  and  _195
REMARK   80  A    between atoms: _194  and  _197
REMARK   81  A    between atoms: _197  and  _198
REMARK   82  A    between atoms: _198  and  _199
REMARK   83  A    between atoms: _204  and  _206
REMARK   84  A    between atoms: _206  and  _207
REMARK   85  A    between atoms: _210  and  _212
REMARK   86  A    between atoms: _212  and  _213
REMARK   87  A    between atoms: _212  and  _215
REMARK   88  A    between atoms: _215  and  _216
REMARK   89  A    between atoms: _219  and  _221
REMARK   90  A    between atoms: _221  and  _222
REMARK   91  A    between atoms: _221  and  _224
REMARK   92  A    between atoms: _227  and  _229
REMARK   93  A    between atoms: _229  and  _230
REMARK   94  A    between atoms: _229  and  _232
REMARK   95  A    between atoms: _232  and  _233
REMARK   96  A    between atoms: _243  and  _245
REMARK   97  A    between atoms: _245  and  _246
REMARK   98  A    between atoms: _248  and  _250
REMARK   99  A    between atoms: _250  and  _251
REMARK  100  A    between atoms: _250  and  _253
REMARK  101  A    between atoms: _253  and  _254
REMARK  102  A    between atoms: _259  and  _260
REMARK  103  A    between atoms: _262  and  _264
REMARK  104  A    between atoms: _264  and  _265
REMARK  105  A    between atoms: _264  and  _267
REMARK  106  A    between atoms: _267  and  _268
REMARK  107  A    between atoms: _271  and  _273
REMARK  108  A    between atoms: _273  and  _274
REMARK  109  A    between atoms: _273  and  _276
REMARK  110  A    between atoms: _276  and  _277
REMARK  111  A    between atoms: _280  and  _282
REMARK  112  A    between atoms: _282  and  _283
REMARK  113  A    between atoms: _282  and  _285
REMARK  114  A    between atoms: _285  and  _286
REMARK  115  A    between atoms: _286  and  _287
REMARK  116  A    between atoms: _287  and  _288
REMARK  117  A    between atoms: _288  and  _289
REMARK  118  A    between atoms: _293  and  _295
REMARK  119  A    between atoms: _295  and  _296
REMARK  120  A    between atoms: _295  and  _298
REMARK  121  A    between atoms: _298  and  _299
REMARK  122  A    between atoms: _302  and  _304
REMARK  123  A    between atoms: _304  and  _305
REMARK  124  A    between atoms: _304  and  _307
REMARK  125  A    between atoms: _307  and  _308
REMARK  126  A    between atoms: _308  and  _309
REMARK  127  A    between atoms: _314  and  _316
REMARK  128  A    between atoms: _316  and  _317
REMARK  129  A    between atoms: _316  and  _319
REMARK  130  A    between atoms: _319  and  _320
REMARK  131  A    between atoms: _325  and  _326
REMARK  132  A    between atoms: _328  and  _330
REMARK  133  A    between atoms: _330  and  _331
REMARK  134  A    between atoms: _334  and  _336
REMARK  135  A    between atoms: _336  and  _337
REMARK  136  A    between atoms: _336  and  _339
REMARK  137  A    between atoms: _339  and  _340
REMARK  138  A    between atoms: _340  and  _341
REMARK  139  A    between atoms: _341  and  _342
REMARK  140  A    between atoms: _342  and  _343
REMARK  141  A    between atoms: _347  and  _349
REMARK  142  A    between atoms: _349  and  _350
REMARK  143  A    between atoms: _349  and  _352
REMARK  144  A    between atoms: _352  and  _353
REMARK  145  A    between atoms: _356  and  _358
REMARK  146  A    between atoms: _358  and  _359
REMARK  147  A    between atoms: _362  and  _364
REMARK  148  A    between atoms: _364  and  _365
REMARK  149  A    between atoms: _364  and  _367
REMARK  150  A    between atoms: _367  and  _368
REMARK  151  A    between atoms: _368  and  _482
REMARK  152  A    between atoms: _369  and  _371
REMARK  153  A    between atoms: _371  and  _372
REMARK  154  A    between atoms: _371  and  _374
REMARK  155  A    between atoms: _374  and  _375
REMARK  156  A    between atoms: _375  and  _376
REMARK  157  A    between atoms: _376  and  _377
REMARK  158  A    between atoms: _377  and  _378
REMARK  159  A    between atoms: _382  and  _384
REMARK  160  A    between atoms: _384  and  _385
REMARK  161  A    between atoms: _387  and  _389
REMARK  162  A    between atoms: _389  and  _390
REMARK  163  A    between atoms: _389  and  _392
REMARK  164  A    between atoms: _392  and  _393
REMARK  165  A    between atoms: _396  and  _398
REMARK  166  A    between atoms: _398  and  _399
REMARK  167  A    between atoms: _398  and  _401
REMARK  168  A    between atoms: _401  and  _402
REMARK  169  A    between atoms: _404  and  _406
REMARK  170  A    between atoms: _406  and  _407
REMARK  171  A    between atoms: _409  and  _411
REMARK  172  A    between atoms: _411  and  _412
REMARK  173  A    between atoms: _414  and  _416
REMARK  174  A    between atoms: _416  and  _417
REMARK  175  A    between atoms: _416  and  _419
REMARK  176  A    between atoms: _419  and  _420
REMARK  177  A    between atoms: _423  and  _425
REMARK  178  A    between atoms: _425  and  _426
REMARK  179  A    between atoms: _425  and  _428
REMARK  180  A    between atoms: _428  and  _429
REMARK  181  A    between atoms: _432  and  _434
REMARK  182  A    between atoms: _434  and  _435
REMARK  183  A    between atoms: _434  and  _437
REMARK  184  A    between atoms: _437  and  _438
REMARK  185  A    between atoms: _440  and  _442
REMARK  186  A    between atoms: _442  and  _443
REMARK  187  A    between atoms: _442  and  _445
REMARK  188  A    between atoms: _445  and  _446
REMARK  189  A    between atoms: _456  and  _458
REMARK  190  A    between atoms: _458  and  _459
REMARK  191  A    between atoms: _461  and  _463
REMARK  192  A    between atoms: _463  and  _464
REMARK  193  A    between atoms: _463  and  _466
REMARK  194  A    between atoms: _466  and  _467
REMARK  195  A    between atoms: _467  and  _468
REMARK  196  A    between atoms: _471  and  _473
REMARK  197  A    between atoms: _473  and  _474
REMARK  198  A    between atoms: _476  and  _478
REMARK  199  A    between atoms: _478  and  _479
REMARK  200  A    between atoms: _478  and  _481
REMARK  201  A    between atoms: _481  and  _482
REMARK  202  A    between atoms: _483  and  _485
REMARK  203  A    between atoms: _485  and  _486
REMARK  204  A    between atoms: _489  and  _491
REMARK  205  A    between atoms: _491  and  _492
REMARK  206  A    between atoms: _491  and  _494
REMARK  207  A    between atoms: _494  and  _495
REMARK  208  A    between atoms: _495  and  _496
REMARK  209  A    between atoms: _501  and  _503
REMARK  210  A    between atoms: _503  and  _504
REMARK  211  A    between atoms: _503  and  _506
REMARK  212  A    between atoms: _506  and  _507
REMARK  213  A    between atoms: _507  and  _508
REMARK  214  A    between atoms: _508  and  _509
REMARK  215  A    between atoms: _519  and  _520
REMARK  216  A    between atoms: _525  and  _527
REMARK  217  A    between atoms: _527  and  _528
REMARK  218  A    between atoms: _530  and  _532
REMARK  219  A    between atoms: _532  and  _533
REMARK  220  A    between atoms: _532  and  _535
REMARK  221  A    between atoms: _538  and  _540
REMARK  222  A    between atoms: _540  and  _541
REMARK  223  A    between atoms: _540  and  _543
REMARK  224  A    between atoms: _543  and  _544
REMARK  225  A    between atoms: _549  and  _550
REMARK                            x       y       z     vdW  Elec       q    Type
REMARK                         _______ _______ _______ _____ _____    ______ ____
ROOT
ATOM      1  CA  ALA A   1      31.245 -23.330  25.556  0.00  0.00    +0.133 C 
ATOM      2  CB  ALA A   1      32.522 -22.581  25.988  0.00  0.00    +0.027 C 
ENDROOT
BRANCH   1   3
ATOM      3  N   ALA A   1      31.582 -24.591  24.865  0.00  0.00    -0.239 NA
ATOM      4  H   ALA A   1      32.579 -24.873  24.778  0.00  0.00    +0.142 HD
ENDBRANCH   1   3
BRANCH   1   5
ATOM      5  C   ALA A   1      30.351 -22.416  24.735  0.00  0.00    +0.224 C 
ATOM      6  O   ALA A   1      29.366 -21.899  25.260  0.00  0.00    -0.287 OA
ENDBRANCH   1   5
TORSDOF 2
REMARK  Name = ../refined-set-2016/4ty6/4ty6_pocket.pdb
REMARK  225 active torsions:
REMARK  status: ('A' for Active; 'I' for Inactive)
REMARK    1  A    between atoms: _1  and  _5
REMARK    2  A    between atoms: _5  and  _6
REMARK    3  A    between atoms: _5  and  _8
REMARK    4  A    between atoms: _8  and  _9
REMARK    5  A    between atoms: _12  and  _14
REMARK    6  A    between atoms: _14  and  _15
REMARK    7  A    between atoms: _14  and  _17
REMARK    8  A    between atoms: _20  and  _22
REMARK    9  A    between atoms: _22  and  _23
REMARK   10  A    between atoms: _22  and  _25
REMARK   11  A    between atoms: _25  and  _26
REMARK   12  A    between atoms: _29  and  _31
REMARK   13  A    between atoms: _31  and  _32
REMARK   14  A    between atoms: _31  and  _34
REMARK   15  A    between atoms: _34  and  _35
REMARK   16  A    between atoms: _38  and  _40
REMARK   17  A    between atoms: _40  and  _41
REMARK   18  A    between atoms: _40  and  _43
REMARK   19  A    between atoms: _43  and  _44
REMARK   20  A    between atoms: _49  and  _51
REMARK   21  A    between atoms: _51  and  _52
REMARK   22  A    between atoms: _51  and  _54
REMARK   23  A    between atoms: _54  and  _55
REMARK   24  A    between atoms: _58  and  _60
REMARK   25  A    between atoms: _60  and  _61
REMARK   26  A    between atoms: _60  and  _63
REMARK   27  A    between atoms: _63  and  _64
REMARK   28  A    between atoms: _67  and  _69
REMARK   29  A    between atoms: _69  and  _70
REMARK   30  A    between atoms: _69  and  _72
REMARK   31  A    between atoms: _72  and  _73
REMARK   32  A    between atoms: _73  and  _74
REMARK   33  A    between atoms: _79  and  _81
REMARK   34  A    between atoms: _81  and  _82
REMARK   35  A    between atoms: _81  and  _84
REMARK   36  A    between atoms: _84  and  _85
REMARK   37  A    between atoms: _85  and  _86
REMARK   38  A    between atoms: _86  and  _87
REMARK   39  A    between atoms: _96  and  _98
REMARK   40  A    between atoms: _98  and  _99
REMARK   41  A    between atoms: _98  and  _101
REMARK   42  A    between atoms: _101  and  _102
REMARK   43  A    between atoms: _107  and  _109
REMARK   44  A    between atoms: _109  and  _110
REMARK   45  A    between atoms: _109  and  _112
REMARK   46  A    between atoms: _112  and  _113
REMARK   47  A    between atoms: _116  and  _118
REMARK   48  A    between atoms: _118  and  _119
REMARK   49  A    between atoms: _118  and  _121
REMARK   50  A    between atoms: _121  and  _122
REMARK   51  A    between atoms: _122  and  _157
REMARK   52  A    between atoms: _123  and  _125
REMARK   53  A    between atoms: _125  and  _126
REMARK   54  A    between atoms: _128  and  _130
REMARK   55  A    between atoms: _130  and  _131
REMARK   56  A    between atoms: _134  and  _136
REMARK   57  A    between atoms: _136  and  _137
REMARK   58  A    between atoms: _140  and  _142
REMARK   59  A    between atoms: _142  and  _143
REMARK   60  A    between atoms: _142  and  _145
REMARK   61  A    between atoms: _145  and  _146
REMARK   62  A    between atoms: _151  and  _153
REMARK   63  A    between atoms: _153  and  _154
REMARK   64  A    between atoms: _153  and  _156
REMARK   65  A    between atoms: _156  and  _157
REMARK   66  A    between atoms: _158  and  _160
REMARK   67  A    between atoms: _160  and  _161
REMARK   68  A    between atoms: _160  and  _163
REMARK   69  A    between atoms: _163  and  _164
REMARK   70  A    between atoms: _170  and  _172
REMARK   71  A    between atoms: _172  and  _173
REMARK   72  A    between atoms: _172  and  _175
REMARK   73  A    between atoms: _175  and  _176
REMARK   74  A    between atoms: _181  and  _182
REMARK   75  A    between atoms: _184  and  _186
REMARK   76  A    between atoms: _186  and  _187
REMARK   77  A    between atoms: _186  and  _189
REMARK   78  A    between atoms: _192  and  _194
REMARK   79  A    between atoms: _194  and  _195
REMARK   80  A    between atoms: _194  and  _197
REMARK   81  A    between atoms: _197  and  _198
REMARK   82  A    between atoms: _198  and  _199
REMARK   83  A    between atoms: _204  and  _206
REMARK   84  A    between atoms: _206  and  _207
REMARK   85  A    between atoms: _210  and  _212
REMARK   86  A    between atoms: _212  and  _213
REMARK   87  A    between atoms: _212  and  _215
REMARK   88  A    between atoms: _215  and  _216
REMARK   89  A    between atoms: _219  and  _221
REMARK   90  A    between atoms: _221  and  _222
REMARK   91  A    between atoms: _221  and  _224
REMARK   92  A    between atoms: _227  and  _229
REMARK   93  A    between atoms: _229  and  _230
REMARK   94  A    between atoms: _229  and  _232
REMARK   95  A    between atoms: _232  and  _233
REMARK   96  A    between atoms: _243  and  _245
REMARK   97  A    between atoms: _245  and  _246
REMARK   98  A    between atoms: _248  and  _250
REMARK   99  A    between atoms: _250  and  _251
REMARK  100  A    between atoms: _250  and  _253
REMARK  101  A    between atoms: _253  and  _254
REMARK  102  A    between atoms: _259  and  _260
REMARK  103  A    between atoms: _262  and  _264
REMARK  104  A    between atoms: _264  and  _265
REMARK  105  A    between atoms: _264  and  _267
REMARK  106  A    between atoms: _267  and  _268
REMARK  107  A    between atoms: _271  and  _273
REMARK  108  A    between atoms: _273  and  _274
REMARK  109  A    between atoms: _273  and  _276
REMARK  110  A    between atoms: _276  and  _277
REMARK  111  A    between atoms: _280  and  _282
REMARK  112  A    between atoms: _282  and  _283
REMARK  113  A    between atoms: _282  and  _285
REMARK  114  A    between atoms: _285  and  _286
REMARK  115  A    between atoms: _286  and  _287
REMARK  116  A    between atoms: _287  and  _288
REMARK  117  A    between atoms: _288  and  _289
REMARK  118  A    between atoms: _293  and  _295
REMARK  119  A    between atoms: _295  and  _296
REMARK  120  A    between atoms: _295  and  _298
REMARK  121  A    between atoms: _298  and  _299
REMARK  122  A    between atoms: _302  and  _304
REMARK  123  A    between atoms: _304  and  _305
REMARK  124  A    between atoms: _304  and  _307
REMARK  125  A    between atoms: _307  and  _308
REMARK  126  A    between atoms: _308  and  _309
REMARK  127  A    between atoms: _314  and  _316
REMARK  128  A    between atoms: _316  and  _317
REMARK  129  A    between atoms: _316  and  _319
REMARK  130  A    between atoms: _319  and  _320
REMARK  131  A    between atoms: _325  and  _326
REMARK  132  A    between atoms: _328  and  _330
REMARK  133  A    between atoms: _330  and  _331
REMARK  134  A    between atoms: _334  and  _336
REMARK  135  A    between atoms: _336  and  _337
REMARK  136  A    between atoms: _336  and  _339
REMARK  137  A    between atoms: _339  and  _340
REMARK  138  A    between atoms: _340  and  _341
REMARK  139  A    between atoms: _341  and  _342
REMARK  140  A    between atoms: _342  and  _343
REMARK  141  A    between atoms: _347  and  _349
REMARK  142  A    between atoms: _349  and  _350
REMARK  143  A    between atoms: _349  and  _352
REMARK  144  A    between atoms: _352  and  _353
REMARK  145  A    between atoms: _356  and  _358
REMARK  146  A    between atoms: _358  and  _359
REMARK  147  A    between atoms: _362  and  _364
REMARK  148  A    between atoms: _364  and  _365
REMARK  149  A    between atoms: _364  and  _367
REMARK  150  A    between atoms: _367  and  _368
REMARK  151  A    between atoms: _368  and  _482
REMARK  152  A    between atoms: _369  and  _371
REMARK  153  A    between atoms: _371  and  _372
REMARK  154  A    between atoms: _371  and  _374
REMARK  155  A    between atoms: _374  and  _375
REMARK  156  A    between atoms: _375  and  _376
REMARK  157  A    between atoms: _376  and  _377
REMARK  158  A    between atoms: _377  and  _378
REMARK  159  A    between atoms: _382  and  _384
REMARK  160  A    between atoms: _384  and  _385
REMARK  161  A    between atoms: _387  and  _389
REMARK  162  A    between atoms: _389  and  _390
REMARK  163  A    between atoms: _389  and  _392
REMARK  164  A    between atoms: _392  and  _393
REMARK  165  A    between atoms: _396  and  _398
REMARK  166  A    between atoms: _398  and  _399
REMARK  167  A    between atoms: _398  and  _401
REMARK  168  A    between atoms: _401  and  _402
REMARK  169  A    between atoms: _404  and  _406
REMARK  170  A    between atoms: _406  and  _407
REMARK  171  A    between atoms: _409  and  _411
REMARK  172  A    between atoms: _411  and  _412
REMARK  173  A    between atoms: _414  and  _416
REMARK  174  A    between atoms: _416  and  _417
REMARK  175  A    between atoms: _416  and  _419
REMARK  176  A    between atoms: _419  and  _420
REMARK  177  A    between atoms: _423  and  _425
REMARK  178  A    between atoms: _425  and  _426
REMARK  179  A    between atoms: _425  and  _428
REMARK  180  A    between atoms: _428  and  _429
REMARK  181  A    between atoms: _432  and  _434
REMARK  182  A    between atoms: _434  and  _435
REMARK  183  A    between atoms: _434  and  _437
REMARK  184  A    between atoms: _437  and  _438
REMARK  185  A    between atoms: _440  and  _442
REMARK  186  A    between atoms: _442  and  _443
REMARK  187  A    between atoms: _442  and  _445
REMARK  188  A    between atoms: _445  and  _446
REMARK  189  A    between atoms: _456  and  _458
REMARK  190  A    between atoms: _458  and  _459
REMARK  191  A    between atoms: _461  and  _463
REMARK  192  A    between atoms: _463  and  _464
REMARK  193  A    between atoms: _463  and  _466
REMARK  194  A    between atoms: _466  and  _467
REMARK  195  A    between atoms: _467  and  _468
REMARK  196  A    between atoms: _471  and  _473
REMARK  197  A    between atoms: _473  and  _474
REMARK  198  A    between atoms: _476  and  _478
REMARK  199  A    between atoms: _478  and  _479
REMARK  200  A    between atoms: _478  and  _481
REMARK  201  A    between atoms: _481  and  _482
REMARK  202  A    between atoms: _483  and  _485
REMARK  203  A    between atoms: _485  and  _486
REMARK  204  A    between atoms: _489  and  _491
REMARK  205  A    between atoms: _491  and  _492
REMARK  206  A    between atoms: _491  and  _494
REMARK  207  A    between atoms: _494  and  _495
REMARK  208  A    between atoms: _495  and  _496
REMARK  209  A    between atoms: _501  and  _503
REMARK  210  A    between atoms: _503  and  _504
REMARK  211  A    between atoms: _503  and  _506
REMARK  212  A    between atoms: _506  and  _507
REMARK  213  A    between atoms: _507  and  _508
REMARK  214  A    between atoms: _508  and  _509
REMARK  215  A    between atoms: _519  and  _520
REMARK  216  A    between atoms: _525  and  _527
REMARK  217  A    between atoms: _527  and  _528
REMARK  218  A    between atoms: _530  and  _532
REMARK  219  A    between atoms: _532  and  _533
REMARK  220  A    between atoms: _532  and  _535
REMARK  221  A    between atoms: _538  and  _540
REMARK  222  A    between atoms: _540  and  _541
REMARK  223  A    between atoms: _540  and  _543
REMARK  224  A    between atoms: _543  and  _544
REMARK  225  A    between atoms: _549  and  _550
REMARK                            x       y       z     vdW  Elec       q    Type
REMARK                         _______ _______ _______ _____ _____    ______ ____
ROOT
ATOM      1  CA  ASP A   1      28.803 -24.723  30.052  0.00  0.00    +0.144 C 
ENDROOT
BRANCH   1   2
ATOM      2  N   ASP A   1      27.401 -24.663  29.604  0.00  0.00    -0.239 NA
ATOM      3  H   ASP A   1      27.000 -23.751  29.307  0.00  0.00    +0.142 HD
ENDBRANCH   1   2
BRANCH   1   4
ATOM      4  C   ASP A   1      28.850 -24.642  31.582  0.00  0.00    +0.225 C 
ATOM      5  O   ASP A   1      29.083 -23.575  32.186  0.00  0.00    -0.287 OA
ENDBRANCH   1   4
BRANCH   1   6
ATOM      6  CB  ASP A   1      29.639 -23.623  29.365  0.00  0.00    +0.139 C 
BRANCH   6   7
ATOM      7  CG  ASP A   1      31.124 -23.792  29.536  0.00  0.00    +0.367 C 
ATOM      8  OD2 ASP A   1      31.551 -24.867  30.005  0.00  0.00    -0.246 OA
ATOM      9  OD1 ASP A   1      31.858 -22.842  29.230  0.00  0.00    -0.246 OA
ENDBRANCH   6   7
ENDBRANCH   1   6
TORSDOF 4
REMARK  Name = ../refined-set-2016/4ty6/4ty6_pocket.pdb
REMARK  225 active torsions:
REMARK  status: ('A' for Active; 'I' for Inactive)
REMARK    1  A    between atoms: _1  and  _5
REMARK    2  A    between atoms: _5  and  _6
REMARK    3  A    between atoms: _5  and  _8
REMARK    4  A    between atoms: _8  and  _9
REMARK    5  A    between atoms: _12  and  _14
REMARK    6  A    between atoms: _14  and  _15
REMARK    7  A    between atoms: _14  and  _17
REMARK    8  A    between atoms: _20  and  _22
REMARK    9  A    between atoms: _22  and  _23
REMARK   10  A    between atoms: _22  and  _25
REMARK   11  A    between atoms: _25  and  _26
REMARK   12  A    between atoms: _29  and  _31
REMARK   13  A    between atoms: _31  and  _32
REMARK   14  A    between atoms: _31  and  _34
REMARK   15  A    between atoms: _34  and  _35
REMARK   16  A    between atoms: _38  and  _40
REMARK   17  A    between atoms: _40  and  _41
REMARK   18  A    between atoms: _40  and  _43
REMARK   19  A    between atoms: _43  and  _44
REMARK   20  A    between atoms: _49  and  _51
REMARK   21  A    between atoms: _51  and  _52
REMARK   22  A    between atoms: _51  and  _54
REMARK   23  A    between atoms: _54  and  _55
REMARK   24  A    between atoms: _58  and  _60
REMARK   25  A    between atoms: _60  and  _61
REMARK   26  A    between atoms: _60  and  _63
REMARK   27  A    between atoms: _63  and  _64
REMARK   28  A    between atoms: _67  and  _69
REMARK   29  A    between atoms: _69  and  _70
REMARK   30  A    between atoms: _69  and  _72
REMARK   31  A    between atoms: _72  and  _73
REMARK   32  A    between atoms: _73  and  _74
REMARK   33  A    between atoms: _79  and  _81
REMARK   34  A    between atoms: _81  and  _82
REMARK   35  A    between atoms: _81  and  _84
REMARK   36  A    between atoms: _84  and  _85
REMARK   37  A    between atoms: _85  and  _86
REMARK   38  A    between atoms: _86  and  _87
REMARK   39  A    between atoms: _96  and  _98
REMARK   40  A    between atoms: _98  and  _99
REMARK   41  A    between atoms: _98  and  _101
REMARK   42  A    between atoms: _101  and  _102
REMARK   43  A    between atoms: _107  and  _109
REMARK   44  A    between atoms: _109  and  _110
REMARK   45  A    between atoms: _109  and  _112
REMARK   46  A    between atoms: _112  and  _113
REMARK   47  A    between atoms: _116  and  _118
REMARK   48  A    between atoms: _118  and  _119
REMARK   49  A    between atoms: _118  and  _121
REMARK   50  A    between atoms: _121  and  _122
REMARK   51  A    between atoms: _122  and  _157
REMARK   52  A    between atoms: _123  and  _125
REMARK   53  A    between atoms: _125  and  _126
REMARK   54  A    between atoms: _128  and  _130
REMARK   55  A    between atoms: _130  and  _131
REMARK   56  A    between atoms: _134  and  _136
REMARK   57  A    between atoms: _136  and  _137
REMARK   58  A    between atoms: _140  and  _142
REMARK   59  A    between atoms: _142  and  _143
REMARK   60  A    between atoms: _142  and  _145
REMARK   61  A    between atoms: _145  and  _146
REMARK   62  A    between atoms: _151  and  _153
REMARK   63  A    between atoms: _153  and  _154
REMARK   64  A    between atoms: _153  and  _156
REMARK   65  A    between atoms: _156  and  _157
REMARK   66  A    between atoms: _158  and  _160
REMARK   67  A    between atoms: _160  and  _161
REMARK   68  A    between atoms: _160  and  _163
REMARK   69  A    between atoms: _163  and  _164
REMARK   70  A    between atoms: _170  and  _172
REMARK   71  A    between atoms: _172  and  _173
REMARK   72  A    between atoms: _172  and  _175
REMARK   73  A    between atoms: _175  and  _176
REMARK   74  A    between atoms: _181  and  _182
REMARK   75  A    between atoms: _184  and  _186
REMARK   76  A    between atoms: _186  and  _187
REMARK   77  A    between atoms: _186  and  _189
REMARK   78  A    between atoms: _192  and  _194
REMARK   79  A    between atoms: _194  and  _195
REMARK   80  A    between atoms: _194  and  _197
REMARK   81  A    between atoms: _197  and  _198
REMARK   82  A    between atoms: _198  and  _199
REMARK   83  A    between atoms: _204  and  _206
REMARK   84  A    between atoms: _206  and  _207
REMARK   85  A    between atoms: _210  and  _212
REMARK   86  A    between atoms: _212  and  _213
REMARK   87  A    between atoms: _212  and  _215
REMARK   88  A    between atoms: _215  and  _216
REMARK   89  A    between atoms: _219  and  _221
REMARK   90  A    between atoms: _221  and  _222
REMARK   91  A    between atoms: _221  and  _224
REMARK   92  A    between atoms: _227  and  _229
REMARK   93  A    between atoms: _229  and  _230
REMARK   94  A    between atoms: _229  and  _232
REMARK   95  A    between atoms: _232  and  _233
REMARK   96  A    between atoms: _243  and  _245
REMARK   97  A    between atoms: _245  and  _246
REMARK   98  A    between atoms: _248  and  _250
REMARK   99  A    between atoms: _250  and  _251
REMARK  100  A    between atoms: _250  and  _253
REMARK  101  A    between atoms: _253  and  _254
REMARK  102  A    between atoms: _259  and  _260
REMARK  103  A    between atoms: _262  and  _264
REMARK  104  A    between atoms: _264  and  _265
REMARK  105  A    between atoms: _264  and  _267
REMARK  106  A    between atoms: _267  and  _268
REMARK  107  A    between atoms: _271  and  _273
REMARK  108  A    between atoms: _273  and  _274
REMARK  109  A    between atoms: _273  and  _276
REMARK  110  A    between atoms: _276  and  _277
REMARK  111  A    between atoms: _280  and  _282
REMARK  112  A    between atoms: _282  and  _283
REMARK  113  A    between atoms: _282  and  _285
REMARK  114  A    between atoms: _285  and  _286
REMARK  115  A    between atoms: _286  and  _287
REMARK  116  A    between atoms: _287  and  _288
REMARK  117  A    between atoms: _288  and  _289
REMARK  118  A    between atoms: _293  and  _295
REMARK  119  A    between atoms: _295  and  _296
REMARK  120  A    between atoms: _295  and  _298
REMARK  121  A    between atoms: _298  and  _299
REMARK  122  A    between atoms: _302  and  _304
REMARK  123  A    between atoms: _304  and  _305
REMARK  124  A    between atoms: _304  and  _307
REMARK  125  A    between atoms: _307  and  _308
REMARK  126  A    between atoms: _308  and  _309
REMARK  127  A    between atoms: _314  and  _316
REMARK  128  A    between atoms: _316  and  _317
REMARK  129  A    between atoms: _316  and  _319
REMARK  130  A    between atoms: _319  and  _320
REMARK  131  A    between atoms: _325  and  _326
REMARK  132  A    between atoms: _328  and  _330
REMARK  133  A    between atoms: _330  and  _331
REMARK  134  A    between atoms: _334  and  _336
REMARK  135  A    between atoms: _336  and  _337
REMARK  136  A    between atoms: _336  and  _339
REMARK  137  A    between atoms: _339  and  _340
REMARK  138  A    between atoms: _340  and  _341
REMARK  139  A    between atoms: _341  and  _342
REMARK  140  A    between atoms: _342  and  _343
REMARK  141  A    between atoms: _347  and  _349
REMARK  142  A    between atoms: _349  and  _350
REMARK  143  A    between atoms: _349  and  _352
REMARK  144  A    between atoms: _352  and  _353
REMARK  145  A    between atoms: _356  and  _358
REMARK  146  A    between atoms: _358  and  _359
REMARK  147  A    between atoms: _362  and  _364
REMARK  148  A    between atoms: _364  and  _365
REMARK  149  A    between atoms: _364  and  _367
REMARK  150  A    between atoms: _367  and  _368
REMARK  151  A    between atoms: _368  and  _482
REMARK  152  A    between atoms: _369  and  _371
REMARK  153  A    between atoms: _371  and  _372
REMARK  154  A    between atoms: _371  and  _374
REMARK  155  A    between atoms: _374  and  _375
REMARK  156  A    between atoms: _375  and  _376
REMARK  157  A    between atoms: _376  and  _377
REMARK  158  A    between atoms: _377  and  _378
REMARK  159  A    between atoms: _382  and  _384
REMARK  160  A    between atoms: _384  and  _385
REMARK  161  A    between atoms: _387  and  _389
REMARK  162  A    between atoms: _389  and  _390
REMARK  163  A    between atoms: _389  and  _392
REMARK  164  A    between atoms: _392  and  _393
REMARK  165  A    between atoms: _396  and  _398
REMARK  166  A    between atoms: _398  and  _399
REMARK  167  A    between atoms: _398  and  _401
REMARK  168  A    between atoms: _401  and  _402
REMARK  169  A    between atoms: _404  and  _406
REMARK  170  A    between atoms: _406  and  _407
REMARK  171  A    between atoms: _409  and  _411
REMARK  172  A    between atoms: _411  and  _412
REMARK  173  A    between atoms: _414  and  _416
REMARK  174  A    between atoms: _416  and  _417
REMARK  175  A    between atoms: _416  and  _419
REMARK  176  A    between atoms: _419  and  _420
REMARK  177  A    between atoms: _423  and  _425
REMARK  178  A    between atoms: _425  and  _426
REMARK  179  A    between atoms: _425  and  _428
REMARK  180  A    between atoms: _428  and  _429
REMARK  181  A    between atoms: _432  and  _434
REMARK  182  A    between atoms: _434  and  _435
REMARK  183  A    between atoms: _434  and  _437
REMARK  184  A    between atoms: _437  and  _438
REMARK  185  A    between atoms: _440  and  _442
REMARK  186  A    between atoms: _442  and  _443
REMARK  187  A    between atoms: _442  and  _445
REMARK  188  A    between atoms: _445  and  _446
REMARK  189  A    between atoms: _456  and  _458
REMARK  190  A    between atoms: _458  and  _459
REMARK  191  A    between atoms: _461  and  _463
REMARK  192  A    between atoms: _463  and  _464
REMARK  193  A    between atoms: _463  and  _466
REMARK  194  A    between atoms: _466  and  _467
REMARK  195  A    between atoms: _467  and  _468
REMARK  196  A    between atoms: _471  and  _473
REMARK  197  A    between atoms: _473  and  _474
REMARK  198  A    between atoms: _476  and  _478
REMARK  199  A    between atoms: _478  and  _479
REMARK  200  A    between atoms: _478  and  _481
REMARK  201  A    between atoms: _481  and  _482
REMARK  202  A    between atoms: _483  and  _485
REMARK  203  A    between atoms: _485  and  _486
REMARK  204  A    between atoms: _489  and  _491
REMARK  205  A    between atoms: _491  and  _492
REMARK  206  A    between atoms: _491  and  _494
REMARK  207  A    between atoms: _494  and  _495
REMARK  208  A    between atoms: _495  and  _496
REMARK  209  A    between atoms: _501  and  _503
REMARK  210  A    between atoms: _503  and  _504
REMARK  211  A    between atoms: _503  and  _506
REMARK  212  A    between atoms: _506  and  _507
REMARK  213  A    between atoms: _507  and  _508
REMARK  214  A    between atoms: _508  and  _509
REMARK  215  A    between atoms: _519  and  _520
REMARK  216  A    between atoms: _525  and  _527
REMARK  217  A    between atoms: _527  and  _528
REMARK  218  A    between atoms: _530  and  _532
REMARK  219  A    between atoms: _532  and  _533
REMARK  220  A    between atoms: _532  and  _535
REMARK  221  A    between atoms: _538  and  _540
REMARK  222  A    between atoms: _540  and  _541
REMARK  223  A    between atoms: _540  and  _543
REMARK  224  A    between atoms: _543  and  _544
REMARK  225  A    between atoms: _549  and  _550
REMARK                            x       y       z     vdW  Elec       q    Type
REMARK                         _______ _______ _______ _____ _____    ______ ____
ROOT
ATOM      1  CA  VAL A   1      34.671 -10.950  37.835  0.00  0.00    +0.133 C 
ENDROOT
BRANCH   1   2
ATOM      2  CB  VAL A   1      34.671 -11.027  36.270  0.00  0.00    +0.023 C 
ATOM      3  CG2 VAL A   1      35.202 -12.387  35.786  0.00  0.00    +0.002 C 
ATOM      4  CG1 VAL A   1      35.464  -9.878  35.633  0.00  0.00    +0.002 C 
ENDBRANCH   1   2
BRANCH   1   5
ATOM      5  N   VAL A   1      34.046  -9.741  38.378  0.00  0.00    -0.239 NA
ATOM      6  H   VAL A   1      34.432  -8.816  38.100  0.00  0.00    +0.142 HD
ENDBRANCH   1   5
BRANCH   1   7
ATOM      7  C   VAL A   1      36.051 -11.093  38.476  0.00  0.00    +0.224 C 
ATOM      8  O   VAL A   1      36.779 -10.108  38.608  0.00  0.00    -0.287 OA
ENDBRANCH   1   7
TORSDOF 3
REMARK  Name = ../refined-set-2016/4ty6/4ty6_pocket.pdb
REMARK  225 active torsions:
REMARK  status: ('A' for Active; 'I' for Inactive)
REMARK    1  A    between atoms: _1  and  _5
REMARK    2  A    between atoms: _5  and  _6
REMARK    3  A    between atoms: _5  and  _8
REMARK    4  A    between atoms: _8  and  _9
REMARK    5  A    between atoms: _12  and  _14
REMARK    6  A    between atoms: _14  and  _15
REMARK    7  A    between atoms: _14  and  _17
REMARK    8  A    between atoms: _20  and  _22
REMARK    9  A    between atoms: _22  and  _23
REMARK   10  A    between atoms: _22  and  _25
REMARK   11  A    between atoms: _25  and  _26
REMARK   12  A    between atoms: _29  and  _31
REMARK   13  A    between atoms: _31  and  _32
REMARK   14  A    between atoms: _31  and  _34
REMARK   15  A    between atoms: _34  and  _35
REMARK   16  A    between atoms: _38  and  _40
REMARK   17  A    between atoms: _40  and  _41
REMARK   18  A    between atoms: _40  and  _43
REMARK   19  A    between atoms: _43  and  _44
REMARK   20  A    between atoms: _49  and  _51
REMARK   21  A    between atoms: _51  and  _52
REMARK   22  A    between atoms: _51  and  _54
REMARK   23  A    between atoms: _54  and  _55
REMARK   24  A    between atoms: _58  and  _60
REMARK   25  A    between atoms: _60  and  _61
REMARK   26  A    between atoms: _60  and  _63
REMARK   27  A    between atoms: _63  and  _64
REMARK   28  A    between atoms: _67  and  _69
REMARK   29  A    between atoms: _69  and  _70
REMARK   30  A    between atoms: _69  and  _72
REMARK   31  A    between atoms: _72  and  _73
REMARK   32  A    between atoms: _73  and  _74
REMARK   33  A    between atoms: _79  and  _81
REMARK   34  A    between atoms: _81  and  _82
REMARK   35  A    between atoms: _81  and  _84
REMARK   36  A    between atoms: _84  and  _85
REMARK   37  A    between atoms: _85  and  _86
REMARK   38  A    between atoms: _86  and  _87
REMARK   39  A    between atoms: _96  and  _98
REMARK   40  A    between atoms: _98  and  _99
REMARK   41  A    between atoms: _98  and  _101
REMARK   42  A    between atoms: _101  and  _102
REMARK   43  A    between atoms: _107  and  _109
REMARK   44  A    between atoms: _109  and  _110
REMARK   45  A    between atoms: _109  and  _112
REMARK   46  A    between atoms: _112  and  _113
REMARK   47  A    between atoms: _116  and  _118
REMARK   48  A    between atoms: _118  and  _119
REMARK   49  A    between atoms: _118  and  _121
REMARK   50  A    between atoms: _121  and  _122
REMARK   51  A    between atoms: _122  and  _157
REMARK   52  A    between atoms: _123  and  _125
REMARK   53  A    between atoms: _125  and  _126
REMARK   54  A    between atoms: _128  and  _130
REMARK   55  A    between atoms: _130  and  _131
REMARK   56  A    between atoms: _134  and  _136
REMARK   57  A    between atoms: _136  and  _137
REMARK   58  A    between atoms: _140  and  _142
REMARK   59  A    between atoms: _142  and  _143
REMARK   60  A    between atoms: _142  and  _145
REMARK   61  A    between atoms: _145  and  _146
REMARK   62  A    between atoms: _151  and  _153
REMARK   63  A    between atoms: _153  and  _154
REMARK   64  A    between atoms: _153  and  _156
REMARK   65  A    between atoms: _156  and  _157
REMARK   66  A    between atoms: _158  and  _160
REMARK   67  A    between atoms: _160  and  _161
REMARK   68  A    between atoms: _160  and  _163
REMARK   69  A    between atoms: _163  and  _164
REMARK   70  A    between atoms: _170  and  _172
REMARK   71  A    between atoms: _172  and  _173
REMARK   72  A    between atoms: _172  and  _175
REMARK   73  A    between atoms: _175  and  _176
REMARK   74  A    between atoms: _181  and  _182
REMARK   75  A    between atoms: _184  and  _186
REMARK   76  A    between atoms: _186  and  _187
REMARK   77  A    between atoms: _186  and  _189
REMARK   78  A    between atoms: _192  and  _194
REMARK   79  A    between atoms: _194  and  _195
REMARK   80  A    between atoms: _194  and  _197
REMARK   81  A    between atoms: _197  and  _198
REMARK   82  A    between atoms: _198  and  _199
REMARK   83  A    between atoms: _204  and  _206
REMARK   84  A    between atoms: _206  and  _207
REMARK   85  A    between atoms: _210  and  _212
REMARK   86  A    between atoms: _212  and  _213
REMARK   87  A    between atoms: _212  and  _215
REMARK   88  A    between atoms: _215  and  _216
REMARK   89  A    between atoms: _219  and  _221
REMARK   90  A    between atoms: _221  and  _222
REMARK   91  A    between atoms: _221  and  _224
REMARK   92  A    between atoms: _227  and  _229
REMARK   93  A    between atoms: _229  and  _230
REMARK   94  A    between atoms: _229  and  _232
REMARK   95  A    between atoms: _232  and  _233
REMARK   96  A    between atoms: _243  and  _245
REMARK   97  A    between atoms: _245  and  _246
REMARK   98  A    between atoms: _248  and  _250
REMARK   99  A    between atoms: _250  and  _251
REMARK  100  A    between atoms: _250  and  _253
REMARK  101  A    between atoms: _253  and  _254
REMARK  102  A    between atoms: _259  and  _260
REMARK  103  A    between atoms: _262  and  _264
REMARK  104  A    between atoms: _264  and  _265
REMARK  105  A    between atoms: _264  and  _267
REMARK  106  A    between atoms: _267  and  _268
REMARK  107  A    between atoms: _271  and  _273
REMARK  108  A    between atoms: _273  and  _274
REMARK  109  A    between atoms: _273  and  _276
REMARK  110  A    between atoms: _276  and  _277
REMARK  111  A    between atoms: _280  and  _282
REMARK  112  A    between atoms: _282  and  _283
REMARK  113  A    between atoms: _282  and  _285
REMARK  114  A    between atoms: _285  and  _286
REMARK  115  A    between atoms: _286  and  _287
REMARK  116  A    between atoms: _287  and  _288
REMARK  117  A    between atoms: _288  and  _289
REMARK  118  A    between atoms: _293  and  _295
REMARK  119  A    between atoms: _295  and  _296
REMARK  120  A    between atoms: _295  and  _298
REMARK  121  A    between atoms: _298  and  _299
REMARK  122  A    between atoms: _302  and  _304
REMARK  123  A    between atoms: _304  and  _305
REMARK  124  A    between atoms: _304  and  _307
REMARK  125  A    between atoms: _307  and  _308
REMARK  126  A    between atoms: _308  and  _309
REMARK  127  A    between atoms: _314  and  _316
REMARK  128  A    between atoms: _316  and  _317
REMARK  129  A    between atoms: _316  and  _319
REMARK  130  A    between atoms: _319  and  _320
REMARK  131  A    between atoms: _325  and  _326
REMARK  132  A    between atoms: _328  and  _330
REMARK  133  A    between atoms: _330  and  _331
REMARK  134  A    between atoms: _334  and  _336
REMARK  135  A    between atoms: _336  and  _337
REMARK  136  A    between atoms: _336  and  _339
REMARK  137  A    between atoms: _339  and  _340
REMARK  138  A    between atoms: _340  and  _341
REMARK  139  A    between atoms: _341  and  _342
REMARK  140  A    between atoms: _342  and  _343
REMARK  141  A    between atoms: _347  and  _349
REMARK  142  A    between atoms: _349  and  _350
REMARK  143  A    between atoms: _349  and  _352
REMARK  144  A    between atoms: _352  and  _353
REMARK  145  A    between atoms: _356  and  _358
REMARK  146  A    between atoms: _358  and  _359
REMARK  147  A    between atoms: _362  and  _364
REMARK  148  A    between atoms: _364  and  _365
REMARK  149  A    between atoms: _364  and  _367
REMARK  150  A    between atoms: _367  and  _368
REMARK  151  A    between atoms: _368  and  _482
REMARK  152  A    between atoms: _369  and  _371
REMARK  153  A    between atoms: _371  and  _372
REMARK  154  A    between atoms: _371  and  _374
REMARK  155  A    between atoms: _374  and  _375
REMARK  156  A    between atoms: _375  and  _376
REMARK  157  A    between atoms: _376  and  _377
REMARK  158  A    between atoms: _377  and  _378
REMARK  159  A    between atoms: _382  and  _384
REMARK  160  A    between atoms: _384  and  _385
REMARK  161  A    between atoms: _387  and  _389
REMARK  162  A    between atoms: _389  and  _390
REMARK  163  A    between atoms: _389  and  _392
REMARK  164  A    between atoms: _392  and  _393
REMARK  165  A    between atoms: _396  and  _398
REMARK  166  A    between atoms: _398  and  _399
REMARK  167  A    between atoms: _398  and  _401
REMARK  168  A    between atoms: _401  and  _402
REMARK  169  A    between atoms: _404  and  _406
REMARK  170  A    between atoms: _406  and  _407
REMARK  171  A    between atoms: _409  and  _411
REMARK  172  A    between atoms: _411  and  _412
REMARK  173  A    between atoms: _414  and  _416
REMARK  174  A    between atoms: _416  and  _417
REMARK  175  A    between atoms: _416  and  _419
REMARK  176  A    between atoms: _419  and  _420
REMARK  177  A    between atoms: _423  and  _425
REMARK  178  A    between atoms: _425  and  _426
REMARK  179  A    between atoms: _425  and  _428
REMARK  180  A    between atoms: _428  and  _429
REMARK  181  A    between atoms: _432  and  _434
REMARK  182  A    between atoms: _434  and  _435
REMARK  183  A    between atoms: _434  and  _437
REMARK  184  A    between atoms: _437  and  _438
REMARK  185  A    between atoms: _440  and  _442
REMARK  186  A    between atoms: _442  and  _443
REMARK  187  A    between atoms: _442  and  _445
REMARK  188  A    between atoms: _445  and  _446
REMARK  189  A    between atoms: _456  and  _458
REMARK  190  A    between atoms: _458  and  _459
REMARK  191  A    between atoms: _461  and  _463
REMARK  192  A    between atoms: _463  and  _464
REMARK  193  A    between atoms: _463  and  _466
REMARK  194  A    between atoms: _466  and  _467
REMARK  195  A    between atoms: _467  and  _468
REMARK  196  A    between atoms: _471  and  _473
REMARK  197  A    between atoms: _473  and  _474
REMARK  198  A    between atoms: _476  and  _478
REMARK  199  A    between atoms: _478  and  _479
REMARK  200  A    between atoms: _478  and  _481
REMARK  201  A    between atoms: _481  and  _482
REMARK  202  A    between atoms: _483  and  _485
REMARK  203  A    between atoms: _485  and  _486
REMARK  204  A    between atoms: _489  and  _491
REMARK  205  A    between atoms: _491  and  _492
REMARK  206  A    between atoms: _491  and  _494
REMARK  207  A    between atoms: _494  and  _495
REMARK  208  A    between atoms: _495  and  _496
REMARK  209  A    between atoms: _501  and  _503
REMARK  210  A    between atoms: _503  and  _504
REMARK  211  A    between atoms: _503  and  _506
REMARK  212  A    between atoms: _506  and  _507
REMARK  213  A    between atoms: _507  and  _508
REMARK  214  A    between atoms: _508  and  _509
REMARK  215  A    between atoms: _519  and  _520
REMARK  216  A    between atoms: _525  and  _527
REMARK  217  A    between atoms: _527  and  _528
REMARK  218  A    between atoms: _530  and  _532
REMARK  219  A    between atoms: _532  and  _533
REMARK  220  A    between atoms: _532  and  _535
REMARK  221  A    between atoms: _538  and  _540
REMARK  222  A    between atoms: _540  and  _541
REMARK  223  A    between atoms: _540  and  _543
REMARK  224  A    between atoms: _543  and  _544
REMARK  225  A    between atoms: _549  and  _550
REMARK                            x       y       z     vdW  Elec       q    Type
REMARK                         _______ _______ _______ _____ _____    ______ ____
ROOT
ATOM      1  C   TRP A   1      44.637 -15.547  36.749  0.00  0.00    +0.239 C 
ATOM      2  O   TRP A   1      45.775 -15.862  36.419  0.00  0.00    -0.274 OA
ATOM      3  N   GLY A   2      43.690 -15.233  35.870  0.00  0.00    -0.296 N 
ATOM      4  H   GLY A   2      42.752 -14.948  36.217  0.00  0.00    +0.150 HD
ENDROOT
BRANCH   1   5
ATOM      5  CA  TRP A   1      44.230 -15.552  38.238  0.00  0.00    +0.149 C 
BRANCH   5   6
ATOM      6  N   TRP A   1      42.765 -15.646  38.367  0.00  0.00    -0.238 NA
ATOM      7  H   TRP A   1      42.315 -16.572  38.217  0.00  0.00    +0.142 HD
ENDBRANCH   5   6
BRANCH   5   8
ATOM      8  CB  TRP A   1      44.871 -16.756  38.940  0.00  0.00    +0.054 C 
BRANCH   8   9
ATOM      9  CG  TRP A   1      44.778 -16.703  40.435  0.00  0.00    -0.002 A 
ATOM     10  CD1 TRP A   1      45.675 -16.120  41.285  0.00  0.00    +0.068 A 
ATOM     11  NE1 TRP A   1      45.270 -16.294  42.594  0.00  0.00    -0.352 N 
ATOM     12  HE1 TRP A   1      45.762 -15.923  43.432  0.00  0.00    +0.166 HD
ATOM     13  CE2 TRP A   1      44.112 -17.036  42.613  0.00  0.00    +0.056 A 
ATOM     14  CZ2 TRP A   1      43.342 -17.494  43.700  0.00  0.00    +0.017 A 
ATOM     15  CH2 TRP A   1      42.189 -18.208  43.411  0.00  0.00    +0.001 A 
ATOM     16  CZ3 TRP A   1      41.819 -18.494  42.079  0.00  0.00    +0.000 A 
ATOM     17  CE3 TRP A   1      42.598 -18.056  41.002  0.00  0.00    +0.001 A 
ATOM     18  CD2 TRP A   1      43.776 -17.324  41.266  0.00  0.00    +0.013 A 
ENDBRANCH   8   9
ENDBRANCH   5   8
ENDBRANCH   1   5
BRANCH   3  19
ATOM     19  CA  GLY A   2      43.932 -15.277  34.433  0.00  0.00    +0.176 C 
BRANCH  19  20
ATOM     20  C   GLY A   2      44.851 -14.174  33.939  0.00  0.00    +0.243 C 
ATOM     21  O   GLY A   2      45.279 -13.306  34.704  0.00  0.00    -0.273 OA
ATOM     22  N   TYR A   3      45.154 -14.213  32.647  0.00  0.00    -0.298 N 
ATOM     23  H   TYR A   3      44.748 -14.981  32.075  0.00  0.00    +0.150 HD
BRANCH  22  24
ATOM     24  CA  TYR A   3      46.021 -13.247  31.977  0.00  0.00    +0.141 C 
BRANCH  24  25
ATOM     25  C   TYR A   3      45.489 -11.829  32.144  0.00  0.00    +0.227 C 
ATOM     26  O   TYR A   3      44.286 -11.623  32.242  0.00  0.00    -0.286 OA
ENDBRANCH  24  25
BRANCH  24  27
ATOM     27  CB  TYR A   3      46.051 -13.569  30.463  0.00  0.00    +0.054 C 
BRANCH  27  28
ATOM     28  CG  TYR A   3      46.778 -14.811  30.003  0.00  0.00    -0.020 A 
ATOM     29  CD2 TYR A   3      47.153 -15.809  30.904  0.00  0.00    -0.001 A 
ATOM     30  CE2 TYR A   3      47.766 -16.983  30.466  0.00  0.00    +0.036 A 
ATOM     31  CZ  TYR A   3      48.005 -17.165  29.109  0.00  0.00    +0.134 A 
ATOM     32  CE1 TYR A   3      47.641 -16.192  28.204  0.00  0.00    +0.036 A 
ATOM     33  CD1 TYR A   3      47.048 -15.018  28.652  0.00  0.00    -0.001 A 
BRANCH  31  34
ATOM     34  OH  TYR A   3      48.650 -18.275  28.628  0.00  0.00    -0.506 OA
ATOM     35  HH  TYR A   3      48.069 -18.735  27.972  0.00  0.00    +0.292 HD
ENDBRANCH  31  34
ENDBRANCH  27  28
ENDBRANCH  24  27
ENDBRANCH  22  24
ENDBRANCH  19  20
ENDBRANCH   3  19
TORSDOF 11
REMARK  Name = ../refined-set-2016/4ty6/4ty6_pocket.pdb
REMARK  225 active torsions:
REMARK  status: ('A' for Active; 'I' for Inactive)
REMARK    1  A    between atoms: _1  and  _5
REMARK    2  A    between atoms: _5  and  _6
REMARK    3  A    between atoms: _5  and  _8
REMARK    4  A    between atoms: _8  and  _9
REMARK    5  A    between atoms: _12  and  _14
REMARK    6  A    between atoms: _14  and  _15
REMARK    7  A    between atoms: _14  and  _17
REMARK    8  A    between atoms: _20  and  _22
REMARK    9  A    between atoms: _22  and  _23
REMARK   10  A    between atoms: _22  and  _25
REMARK   11  A    between atoms: _25  and  _26
REMARK   12  A    between atoms: _29  and  _31
REMARK   13  A    between atoms: _31  and  _32
REMARK   14  A    between atoms: _31  and  _34
REMARK   15  A    between atoms: _34  and  _35
REMARK   16  A    between atoms: _38  and  _40
REMARK   17  A    between atoms: _40  and  _41
REMARK   18  A    between atoms: _40  and  _43
REMARK   19  A    between atoms: _43  and  _44
REMARK   20  A    between atoms: _49  and  _51
REMARK   21  A    between atoms: _51  and  _52
REMARK   22  A    between atoms: _51  and  _54
REMARK   23  A    between atoms: _54  and  _55
REMARK   24  A    between atoms: _58  and  _60
REMARK   25  A    between atoms: _60  and  _61
REMARK   26  A    between atoms: _60  and  _63
REMARK   27  A    between atoms: _63  and  _64
REMARK   28  A    between atoms: _67  and  _69
REMARK   29  A    between atoms: _69  and  _70
REMARK   30  A    between atoms: _69  and  _72
REMARK   31  A    between atoms: _72  and  _73
REMARK   32  A    between atoms: _73  and  _74
REMARK   33  A    between atoms: _79  and  _81
REMARK   34  A    between atoms: _81  and  _82
REMARK   35  A    between atoms: _81  and  _84
REMARK   36  A    between atoms: _84  and  _85
REMARK   37  A    between atoms: _85  and  _86
REMARK   38  A    between atoms: _86  and  _87
REMARK   39  A    between atoms: _96  and  _98
REMARK   40  A    between atoms: _98  and  _99
REMARK   41  A    between atoms: _98  and  _101
REMARK   42  A    between atoms: _101  and  _102
REMARK   43  A    between atoms: _107  and  _109
REMARK   44  A    between atoms: _109  and  _110
REMARK   45  A    between atoms: _109  and  _112
REMARK   46  A    between atoms: _112  and  _113
REMARK   47  A    between atoms: _116  and  _118
REMARK   48  A    between atoms: _118  and  _119
REMARK   49  A    between atoms: _118  and  _121
REMARK   50  A    between atoms: _121  and  _122
REMARK   51  A    between atoms: _122  and  _157
REMARK   52  A    between atoms: _123  and  _125
REMARK   53  A    between atoms: _125  and  _126
REMARK   54  A    between atoms: _128  and  _130
REMARK   55  A    between atoms: _130  and  _131
REMARK   56  A    between atoms: _134  and  _136
REMARK   57  A    between atoms: _136  and  _137
REMARK   58  A    between atoms: _140  and  _142
REMARK   59  A    between atoms: _142  and  _143
REMARK   60  A    between atoms: _142  and  _145
REMARK   61  A    between atoms: _145  and  _146
REMARK   62  A    between atoms: _151  and  _153
REMARK   63  A    between atoms: _153  and  _154
REMARK   64  A    between atoms: _153  and  _156
REMARK   65  A    between atoms: _156  and  _157
REMARK   66  A    between atoms: _158  and  _160
REMARK   67  A    between atoms: _160  and  _161
REMARK   68  A    between atoms: _160  and  _163
REMARK   69  A    between atoms: _163  and  _164
REMARK   70  A    between atoms: _170  and  _172
REMARK   71  A    between atoms: _172  and  _173
REMARK   72  A    between atoms: _172  and  _175
REMARK   73  A    between atoms: _175  and  _176
REMARK   74  A    between atoms: _181  and  _182
REMARK   75  A    between atoms: _184  and  _186
REMARK   76  A    between atoms: _186  and  _187
REMARK   77  A    between atoms: _186  and  _189
REMARK   78  A    between atoms: _192  and  _194
REMARK   79  A    between atoms: _194  and  _195
REMARK   80  A    between atoms: _194  and  _197
REMARK   81  A    between atoms: _197  and  _198
REMARK   82  A    between atoms: _198  and  _199
REMARK   83  A    between atoms: _204  and  _206
REMARK   84  A    between atoms: _206  and  _207
REMARK   85  A    between atoms: _210  and  _212
REMARK   86  A    between atoms: _212  and  _213
REMARK   87  A    between atoms: _212  and  _215
REMARK   88  A    between atoms: _215  and  _216
REMARK   89  A    between atoms: _219  and  _221
REMARK   90  A    between atoms: _221  and  _222
REMARK   91  A    between atoms: _221  and  _224
REMARK   92  A    between atoms: _227  and  _229
REMARK   93  A    between atoms: _229  and  _230
REMARK   94  A    between atoms: _229  and  _232
REMARK   95  A    between atoms: _232  and  _233
REMARK   96  A    between atoms: _243  and  _245
REMARK   97  A    between atoms: _245  and  _246
REMARK   98  A    between atoms: _248  and  _250
REMARK   99  A    between atoms: _250  and  _251
REMARK  100  A    between atoms: _250  and  _253
REMARK  101  A    between atoms: _253  and  _254
REMARK  102  A    between atoms: _259  and  _260
REMARK  103  A    between atoms: _262  and  _264
REMARK  104  A    between atoms: _264  and  _265
REMARK  105  A    between atoms: _264  and  _267
REMARK  106  A    between atoms: _267  and  _268
REMARK  107  A    between atoms: _271  and  _273
REMARK  108  A    between atoms: _273  and  _274
REMARK  109  A    between atoms: _273  and  _276
REMARK  110  A    between atoms: _276  and  _277
REMARK  111  A    between atoms: _280  and  _282
REMARK  112  A    between atoms: _282  and  _283
REMARK  113  A    between atoms: _282  and  _285
REMARK  114  A    between atoms: _285  and  _286
REMARK  115  A    between atoms: _286  and  _287
REMARK  116  A    between atoms: _287  and  _288
REMARK  117  A    between atoms: _288  and  _289
REMARK  118  A    between atoms: _293  and  _295
REMARK  119  A    between atoms: _295  and  _296
REMARK  120  A    between atoms: _295  and  _298
REMARK  121  A    between atoms: _298  and  _299
REMARK  122  A    between atoms: _302  and  _304
REMARK  123  A    between atoms: _304  and  _305
REMARK  124  A    between atoms: _304  and  _307
REMARK  125  A    between atoms: _307  and  _308
REMARK  126  A    between atoms: _308  and  _309
REMARK  127  A    between atoms: _314  and  _316
REMARK  128  A    between atoms: _316  and  _317
REMARK  129  A    between atoms: _316  and  _319
REMARK  130  A    between atoms: _319  and  _320
REMARK  131  A    between atoms: _325  and  _326
REMARK  132  A    between atoms: _328  and  _330
REMARK  133  A    between atoms: _330  and  _331
REMARK  134  A    between atoms: _334  and  _336
REMARK  135  A    between atoms: _336  and  _337
REMARK  136  A    between atoms: _336  and  _339
REMARK  137  A    between atoms: _339  and  _340
REMARK  138  A    between atoms: _340  and  _341
REMARK  139  A    between atoms: _341  and  _342
REMARK  140  A    between atoms: _342  and  _343
REMARK  141  A    between atoms: _347  and  _349
REMARK  142  A    between atoms: _349  and  _350
REMARK  143  A    between atoms: _349  and  _352
REMARK  144  A    between atoms: _352  and  _353
REMARK  145  A    between atoms: _356  and  _358
REMARK  146  A    between atoms: _358  and  _359
REMARK  147  A    between atoms: _362  and  _364
REMARK  148  A    between atoms: _364  and  _365
REMARK  149  A    between atoms: _364  and  _367
REMARK  150  A    between atoms: _367  and  _368
REMARK  151  A    between atoms: _368  and  _482
REMARK  152  A    between atoms: _369  and  _371
REMARK  153  A    between atoms: _371  and  _372
REMARK  154  A    between atoms: _371  and  _374
REMARK  155  A    between atoms: _374  and  _375
REMARK  156  A    between atoms: _375  and  _376
REMARK  157  A    between atoms: _376  and  _377
REMARK  158  A    between atoms: _377  and  _378
REMARK  159  A    between atoms: _382  and  _384
REMARK  160  A    between atoms: _384  and  _385
REMARK  161  A    between atoms: _387  and  _389
REMARK  162  A    between atoms: _389  and  _390
REMARK  163  A    between atoms: _389  and  _392
REMARK  164  A    between atoms: _392  and  _393
REMARK  165  A    between atoms: _396  and  _398
REMARK  166  A    between atoms: _398  and  _399
REMARK  167  A    between atoms: _398  and  _401
REMARK  168  A    between atoms: _401  and  _402
REMARK  169  A    between atoms: _404  and  _406
REMARK  170  A    between atoms: _406  and  _407
REMARK  171  A    between atoms: _409  and  _411
REMARK  172  A    between atoms: _411  and  _412
REMARK  173  A    between atoms: _414  and  _416
REMARK  174  A    between atoms: _416  and  _417
REMARK  175  A    between atoms: _416  and  _419
REMARK  176  A    between atoms: _419  and  _420
REMARK  177  A    between atoms: _423  and  _425
REMARK  178  A    between atoms: _425  and  _426
REMARK  179  A    between atoms: _425  and  _428
REMARK  180  A    between atoms: _428  and  _429
REMARK  181  A    between atoms: _432  and  _434
REMARK  182  A    between atoms: _434  and  _435
REMARK  183  A    between atoms: _434  and  _437
REMARK  184  A    between atoms: _437  and  _438
REMARK  185  A    between atoms: _440  and  _442
REMARK  186  A    between atoms: _442  and  _443
REMARK  187  A    between atoms: _442  and  _445
REMARK  188  A    between atoms: _445  and  _446
REMARK  189  A    between atoms: _456  and  _458
REMARK  190  A    between atoms: _458  and  _459
REMARK  191  A    between atoms: _461  and  _463
REMARK  192  A    between atoms: _463  and  _464
REMARK  193  A    between atoms: _463  and  _466
REMARK  194  A    between atoms: _466  and  _467
REMARK  195  A    between atoms: _467  and  _468
REMARK  196  A    between atoms: _471  and  _473
REMARK  197  A    between atoms: _473  and  _474
REMARK  198  A    between atoms: _476  and  _478
REMARK  199  A    between atoms: _478  and  _479
REMARK  200  A    between atoms: _478  and  _481
REMARK  201  A    between atoms: _481  and  _482
REMARK  202  A    between atoms: _483  and  _485
REMARK  203  A    between atoms: _485  and  _486
REMARK  204  A    between atoms: _489  and  _491
REMARK  205  A    between atoms: _491  and  _492
REMARK  206  A    between atoms: _491  and  _494
REMARK  207  A    between atoms: _494  and  _495
REMARK  208  A    between atoms: _495  and  _496
REMARK  209  A    between atoms: _501  and  _503
REMARK  210  A    between atoms: _503  and  _504
REMARK  211  A    between atoms: _503  and  _506
REMARK  212  A    between atoms: _506  and  _507
REMARK  213  A    between atoms: _507  and  _508
REMARK  214  A    between atoms: _508  and  _509
REMARK  215  A    between atoms: _519  and  _520
REMARK  216  A    between atoms: _525  and  _527
REMARK  217  A    between atoms: _527  and  _528
REMARK  218  A    between atoms: _530  and  _532
REMARK  219  A    between atoms: _532  and  _533
REMARK  220  A    between atoms: _532  and  _535
REMARK  221  A    between atoms: _538  and  _540
REMARK  222  A    between atoms: _540  and  _541
REMARK  223  A    between atoms: _540  and  _543
REMARK  224  A    between atoms: _543  and  _544
REMARK  225  A    between atoms: _549  and  _550
REMARK                            x       y       z     vdW  Elec       q    Type
REMARK                         _______ _______ _______ _____ _____    ______ ____
ROOT
ATOM      1  CA  LEU A   1      46.104 -11.447  25.373  0.00  0.00    +0.133 C 
ENDROOT
BRANCH   1   2
ATOM      2  N   LEU A   1      46.210 -10.289  26.259  0.00  0.00    -0.239 NA
ATOM      3  H   LEU A   1      46.048  -9.341  25.863  0.00  0.00    +0.142 HD
ENDBRANCH   1   2
BRANCH   1   4
ATOM      4  C   LEU A   1      47.267 -12.437  25.470  0.00  0.00    +0.224 C 
ATOM      5  O   LEU A   1      47.017 -13.637  25.616  0.00  0.00    -0.287 OA
ENDBRANCH   1   4
BRANCH   1   6
ATOM      6  CB  LEU A   1      45.870 -11.027  23.911  0.00  0.00    +0.025 C 
BRANCH   6   7
ATOM      7  CG  LEU A   1      45.365 -12.135  22.978  0.00  0.00    +0.002 C 
ATOM      8  CD2 LEU A   1      44.001 -12.691  23.441  0.00  0.00    +0.000 C 
ATOM      9  CD1 LEU A   1      45.274 -11.625  21.546  0.00  0.00    +0.000 C 
ENDBRANCH   6   7
ENDBRANCH   1   6
TORSDOF 4
REMARK  Name = ../refined-set-2016/4ty6/4ty6_pocket.pdb
REMARK  225 active torsions:
REMARK  status: ('A' for Active; 'I' for Inactive)
REMARK    1  A    between atoms: _1  and  _5
REMARK    2  A    between atoms: _5  and  _6
REMARK    3  A    between atoms: _5  and  _8
REMARK    4  A    between atoms: _8  and  _9
REMARK    5  A    between atoms: _12  and  _14
REMARK    6  A    between atoms: _14  and  _15
REMARK    7  A    between atoms: _14  and  _17
REMARK    8  A    between atoms: _20  and  _22
REMARK    9  A    between atoms: _22  and  _23
REMARK   10  A    between atoms: _22  and  _25
REMARK   11  A    between atoms: _25  and  _26
REMARK   12  A    between atoms: _29  and  _31
REMARK   13  A    between atoms: _31  and  _32
REMARK   14  A    between atoms: _31  and  _34
REMARK   15  A    between atoms: _34  and  _35
REMARK   16  A    between atoms: _38  and  _40
REMARK   17  A    between atoms: _40  and  _41
REMARK   18  A    between atoms: _40  and  _43
REMARK   19  A    between atoms: _43  and  _44
REMARK   20  A    between atoms: _49  and  _51
REMARK   21  A    between atoms: _51  and  _52
REMARK   22  A    between atoms: _51  and  _54
REMARK   23  A    between atoms: _54  and  _55
REMARK   24  A    between atoms: _58  and  _60
REMARK   25  A    between atoms: _60  and  _61
REMARK   26  A    between atoms: _60  and  _63
REMARK   27  A    between atoms: _63  and  _64
REMARK   28  A    between atoms: _67  and  _69
REMARK   29  A    between atoms: _69  and  _70
REMARK   30  A    between atoms: _69  and  _72
REMARK   31  A    between atoms: _72  and  _73
REMARK   32  A    between atoms: _73  and  _74
REMARK   33  A    between atoms: _79  and  _81
REMARK   34  A    between atoms: _81  and  _82
REMARK   35  A    between atoms: _81  and  _84
REMARK   36  A    between atoms: _84  and  _85
REMARK   37  A    between atoms: _85  and  _86
REMARK   38  A    between atoms: _86  and  _87
REMARK   39  A    between atoms: _96  and  _98
REMARK   40  A    between atoms: _98  and  _99
REMARK   41  A    between atoms: _98  and  _101
REMARK   42  A    between atoms: _101  and  _102
REMARK   43  A    between atoms: _107  and  _109
REMARK   44  A    between atoms: _109  and  _110
REMARK   45  A    between atoms: _109  and  _112
REMARK   46  A    between atoms: _112  and  _113
REMARK   47  A    between atoms: _116  and  _118
REMARK   48  A    between atoms: _118  and  _119
REMARK   49  A    between atoms: _118  and  _121
REMARK   50  A    between atoms: _121  and  _122
REMARK   51  A    between atoms: _122  and  _157
REMARK   52  A    between atoms: _123  and  _125
REMARK   53  A    between atoms: _125  and  _126
REMARK   54  A    between atoms: _128  and  _130
REMARK   55  A    between atoms: _130  and  _131
REMARK   56  A    between atoms: _134  and  _136
REMARK   57  A    between atoms: _136  and  _137
REMARK   58  A    between atoms: _140  and  _142
REMARK   59  A    between atoms: _142  and  _143
REMARK   60  A    between atoms: _142  and  _145
REMARK   61  A    between atoms: _145  and  _146
REMARK   62  A    between atoms: _151  and  _153
REMARK   63  A    between atoms: _153  and  _154
REMARK   64  A    between atoms: _153  and  _156
REMARK   65  A    between atoms: _156  and  _157
REMARK   66  A    between atoms: _158  and  _160
REMARK   67  A    between atoms: _160  and  _161
REMARK   68  A    between atoms: _160  and  _163
REMARK   69  A    between atoms: _163  and  _164
REMARK   70  A    between atoms: _170  and  _172
REMARK   71  A    between atoms: _172  and  _173
REMARK   72  A    between atoms: _172  and  _175
REMARK   73  A    between atoms: _175  and  _176
REMARK   74  A    between atoms: _181  and  _182
REMARK   75  A    between atoms: _184  and  _186
REMARK   76  A    between atoms: _186  and  _187
REMARK   77  A    between atoms: _186  and  _189
REMARK   78  A    between atoms: _192  and  _194
REMARK   79  A    between atoms: _194  and  _195
REMARK   80  A    between atoms: _194  and  _197
REMARK   81  A    between atoms: _197  and  _198
REMARK   82  A    between atoms: _198  and  _199
REMARK   83  A    between atoms: _204  and  _206
REMARK   84  A    between atoms: _206  and  _207
REMARK   85  A    between atoms: _210  and  _212
REMARK   86  A    between atoms: _212  and  _213
REMARK   87  A    between atoms: _212  and  _215
REMARK   88  A    between atoms: _215  and  _216
REMARK   89  A    between atoms: _219  and  _221
REMARK   90  A    between atoms: _221  and  _222
REMARK   91  A    between atoms: _221  and  _224
REMARK   92  A    between atoms: _227  and  _229
REMARK   93  A    between atoms: _229  and  _230
REMARK   94  A    between atoms: _229  and  _232
REMARK   95  A    between atoms: _232  and  _233
REMARK   96  A    between atoms: _243  and  _245
REMARK   97  A    between atoms: _245  and  _246
REMARK   98  A    between atoms: _248  and  _250
REMARK   99  A    between atoms: _250  and  _251
REMARK  100  A    between atoms: _250  and  _253
REMARK  101  A    between atoms: _253  and  _254
REMARK  102  A    between atoms: _259  and  _260
REMARK  103  A    between atoms: _262  and  _264
REMARK  104  A    between atoms: _264  and  _265
REMARK  105  A    between atoms: _264  and  _267
REMARK  106  A    between atoms: _267  and  _268
REMARK  107  A    between atoms: _271  and  _273
REMARK  108  A    between atoms: _273  and  _274
REMARK  109  A    between atoms: _273  and  _276
REMARK  110  A    between atoms: _276  and  _277
REMARK  111  A    between atoms: _280  and  _282
REMARK  112  A    between atoms: _282  and  _283
REMARK  113  A    between atoms: _282  and  _285
REMARK  114  A    between atoms: _285  and  _286
REMARK  115  A    between atoms: _286  and  _287
REMARK  116  A    between atoms: _287  and  _288
REMARK  117  A    between atoms: _288  and  _289
REMARK  118  A    between atoms: _293  and  _295
REMARK  119  A    between atoms: _295  and  _296
REMARK  120  A    between atoms: _295  and  _298
REMARK  121  A    between atoms: _298  and  _299
REMARK  122  A    between atoms: _302  and  _304
REMARK  123  A    between atoms: _304  and  _305
REMARK  124  A    between atoms: _304  and  _307
REMARK  125  A    between atoms: _307  and  _308
REMARK  126  A    between atoms: _308  and  _309
REMARK  127  A    between atoms: _314  and  _316
REMARK  128  A    between atoms: _316  and  _317
REMARK  129  A    between atoms: _316  and  _319
REMARK  130  A    between atoms: _319  and  _320
REMARK  131  A    between atoms: _325  and  _326
REMARK  132  A    between atoms: _328  and  _330
REMARK  133  A    between atoms: _330  and  _331
REMARK  134  A    between atoms: _334  and  _336
REMARK  135  A    between atoms: _336  and  _337
REMARK  136  A    between atoms: _336  and  _339
REMARK  137  A    between atoms: _339  and  _340
REMARK  138  A    between atoms: _340  and  _341
REMARK  139  A    between atoms: _341  and  _342
REMARK  140  A    between atoms: _342  and  _343
REMARK  141  A    between atoms: _347  and  _349
REMARK  142  A    between atoms: _349  and  _350
REMARK  143  A    between atoms: _349  and  _352
REMARK  144  A    between atoms: _352  and  _353
REMARK  145  A    between atoms: _356  and  _358
REMARK  146  A    between atoms: _358  and  _359
REMARK  147  A    between atoms: _362  and  _364
REMARK  148  A    between atoms: _364  and  _365
REMARK  149  A    between atoms: _364  and  _367
REMARK  150  A    between atoms: _367  and  _368
REMARK  151  A    between atoms: _368  and  _482
REMARK  152  A    between atoms: _369  and  _371
REMARK  153  A    between atoms: _371  and  _372
REMARK  154  A    between atoms: _371  and  _374
REMARK  155  A    between atoms: _374  and  _375
REMARK  156  A    between atoms: _375  and  _376
REMARK  157  A    between atoms: _376  and  _377
REMARK  158  A    between atoms: _377  and  _378
REMARK  159  A    between atoms: _382  and  _384
REMARK  160  A    between atoms: _384  and  _385
REMARK  161  A    between atoms: _387  and  _389
REMARK  162  A    between atoms: _389  and  _390
REMARK  163  A    between atoms: _389  and  _392
REMARK  164  A    between atoms: _392  and  _393
REMARK  165  A    between atoms: _396  and  _398
REMARK  166  A    between atoms: _398  and  _399
REMARK  167  A    between atoms: _398  and  _401
REMARK  168  A    between atoms: _401  and  _402
REMARK  169  A    between atoms: _404  and  _406
REMARK  170  A    between atoms: _406  and  _407
REMARK  171  A    between atoms: _409  and  _411
REMARK  172  A    between atoms: _411  and  _412
REMARK  173  A    between atoms: _414  and  _416
REMARK  174  A    between atoms: _416  and  _417
REMARK  175  A    between atoms: _416  and  _419
REMARK  176  A    between atoms: _419  and  _420
REMARK  177  A    between atoms: _423  and  _425
REMARK  178  A    between atoms: _425  and  _426
REMARK  179  A    between atoms: _425  and  _428
REMARK  180  A    between atoms: _428  and  _429
REMARK  181  A    between atoms: _432  and  _434
REMARK  182  A    between atoms: _434  and  _435
REMARK  183  A    between atoms: _434  and  _437
REMARK  184  A    between atoms: _437  and  _438
REMARK  185  A    between atoms: _440  and  _442
REMARK  186  A    between atoms: _442  and  _443
REMARK  187  A    between atoms: _442  and  _445
REMARK  188  A    between atoms: _445  and  _446
REMARK  189  A    between atoms: _456  and  _458
REMARK  190  A    between atoms: _458  and  _459
REMARK  191  A    between atoms: _461  and  _463
REMARK  192  A    between atoms: _463  and  _464
REMARK  193  A    between atoms: _463  and  _466
REMARK  194  A    between atoms: _466  and  _467
REMARK  195  A    between atoms: _467  and  _468
REMARK  196  A    between atoms: _471  and  _473
REMARK  197  A    between atoms: _473  and  _474
REMARK  198  A    between atoms: _476  and  _478
REMARK  199  A    between atoms: _478  and  _479
REMARK  200  A    between atoms: _478  and  _481
REMARK  201  A    between atoms: _481  and  _482
REMARK  202  A    between atoms: _483  and  _485
REMARK  203  A    between atoms: _485  and  _486
REMARK  204  A    between atoms: _489  and  _491
REMARK  205  A    between atoms: _491  and  _492
REMARK  206  A    between atoms: _491  and  _494
REMARK  207  A    between atoms: _494  and  _495
REMARK  208  A    between atoms: _495  and  _496
REMARK  209  A    between atoms: _501  and  _503
REMARK  210  A    between atoms: _503  and  _504
REMARK  211  A    between atoms: _503  and  _506
REMARK  212  A    between atoms: _506  and  _507
REMARK  213  A    between atoms: _507  and  _508
REMARK  214  A    between atoms: _508  and  _509
REMARK  215  A    between atoms: _519  and  _520
REMARK  216  A    between atoms: _525  and  _527
REMARK  217  A    between atoms: _527  and  _528
REMARK  218  A    between atoms: _530  and  _532
REMARK  219  A    between atoms: _532  and  _533
REMARK  220  A    between atoms: _532  and  _535
REMARK  221  A    between atoms: _538  and  _540
REMARK  222  A    between atoms: _540  and  _541
REMARK  223  A    between atoms: _540  and  _543
REMARK  224  A    between atoms: _543  and  _544
REMARK  225  A    between atoms: _549  and  _550
REMARK                            x       y       z     vdW  Elec       q    Type
REMARK                         _______ _______ _______ _____ _____    ______ ____
ROOT
ATOM      1  C   LYS A   2      49.810 -15.643  33.162  0.00  0.00    +0.241 C 
ATOM      2  N   ILE A   3      49.503 -16.770  33.777  0.00  0.00    -0.297 N 
ATOM      3  H   ILE A   3      49.869 -17.658  33.379  0.00  0.00    +0.150 HD
ATOM      4  O   LYS A   2      49.336 -14.556  33.473  0.00  0.00    -0.273 OA
ENDROOT
BRANCH   2   5
ATOM      5  CA  ILE A   3      48.672 -16.847  34.994  0.00  0.00    +0.149 C 
BRANCH   5   6
ATOM      6  C   ILE A   3      49.285 -15.911  36.053  0.00  0.00    +0.241 C 
ATOM      7  N   GLN A   4      48.449 -15.100  36.690  0.00  0.00    -0.298 N 
ATOM      8  H   GLN A   4      47.437 -15.165  36.457  0.00  0.00    +0.150 HD
ATOM      9  O   ILE A   3      50.502 -15.927  36.265  0.00  0.00    -0.273 OA
BRANCH   7  10
ATOM     10  CA  GLN A   4      48.855 -14.128  37.691  0.00  0.00    +0.137 C 
BRANCH  10  11
ATOM     11  C   GLN A   4      49.019 -14.769  39.055  0.00  0.00    +0.227 C 
ATOM     12  O   GLN A   4      48.344 -15.752  39.375  0.00  0.00    -0.286 OA
ENDBRANCH  10  11
BRANCH  10  13
ATOM     13  CB  GLN A   4      47.841 -12.970  37.759  0.00  0.00    +0.037 C 
BRANCH  13  14
ATOM     14  CG  GLN A   4      47.739 -12.165  36.446  0.00  0.00    +0.087 C 
BRANCH  14  15
ATOM     15  CD  GLN A   4      49.076 -11.587  36.066  0.00  0.00    +0.219 C 
ATOM     16  OE1 GLN A   4      49.610 -10.734  36.769  0.00  0.00    -0.275 OA
ATOM     17  NE2 GLN A   4      49.677 -12.094  34.997  0.00  0.00    -0.329 N 
ATOM     18 HE21 GLN A   4      50.629 -11.770  34.733  0.00  0.00    +0.145 HD
ATOM     19 HE22 GLN A   4      49.196 -12.816  34.423  0.00  0.00    +0.145 HD
ENDBRANCH  14  15
ENDBRANCH  13  14
ENDBRANCH  10  13
ENDBRANCH   7  10
ENDBRANCH   5   6
BRANCH   5  20
ATOM     20  CB  ILE A   3      48.583 -18.327  35.472  0.00  0.00    +0.027 C 
ATOM     21  CG2 ILE A   3      47.946 -18.451  36.904  0.00  0.00    +0.002 C 
BRANCH  20  22
ATOM     22  CG1 ILE A   3      47.793 -19.182  34.427  0.00  0.00    +0.002 C 
ATOM     23  CD1 ILE A   3      46.366 -18.614  33.962  0.00  0.00    +0.000 C 
ENDBRANCH  20  22
ENDBRANCH   5  20
ENDBRANCH   2   5
BRANCH   1  24
ATOM     24  CA  LYS A   2      50.779 -15.751  31.994  0.00  0.00    +0.149 C 
BRANCH  24  26
ATOM     25  C   ASP A   1      50.725 -14.523  29.889  0.00  0.00    +0.239 C 
ATOM     26  N   LYS A   2      50.650 -14.535  31.212  0.00  0.00    -0.297 N 
ATOM     27  H   LYS A   2      50.492 -13.636  31.711  0.00  0.00    +0.150 HD
ATOM     28  O   ASP A   1      50.988 -15.533  29.228  0.00  0.00    -0.274 OA
BRANCH  25  29
ATOM     29  CA  ASP A   1      50.540 -13.177  29.213  0.00  0.00    +0.156 C 
BRANCH  29  30
ATOM     30  N   ASP A   1      50.074 -13.380  27.847  0.00  0.00    -0.238 NA
ATOM     31  H   ASP A   1      49.514 -14.229  27.630  0.00  0.00    +0.142 HD
ENDBRANCH  29  30
BRANCH  29  32
ATOM     32  CB  ASP A   1      49.513 -12.286  29.955  0.00  0.00    +0.140 C 
BRANCH  32  33
ATOM     33  CG  ASP A   1      50.000 -11.536  31.185  0.00  0.00    +0.367 C 
ATOM     34  OD2 ASP A   1      49.149 -11.079  31.972  0.00  0.00    -0.246 OA
ATOM     35  OD1 ASP A   1      51.232 -11.412  31.362  0.00  0.00    -0.246 OA
ENDBRANCH  32  33
ENDBRANCH  29  32
ENDBRANCH  25  29
ENDBRANCH  24  26
BRANCH  24  36
ATOM     36  CB  LYS A   2      52.234 -15.956  32.492  0.00  0.00    +0.029 C 
BRANCH  36  37
ATOM     37  CG  LYS A   2      52.759 -14.872  33.441  0.00  0.00    +0.000 C 
BRANCH  37  38
ATOM     38  CD  LYS A   2      54.096 -15.262  34.077  0.00  0.00    -0.024 C 
BRANCH  38  39
ATOM     39  CE  LYS A   2      55.307 -14.812  33.285  0.00  0.00    -0.086 C 
BRANCH  39  40
ATOM     40  NZ  LYS A   2      55.601 -13.364  33.475  0.00  0.00    +0.380 N 
ATOM     41  HZ1 LYS A   2      55.786 -13.178  34.481  0.00  0.00    -0.089 HD
ATOM     42  HZ2 LYS A   2      54.784 -12.802  33.162  0.00  0.00    -0.089 HD
ATOM     43  HZ3 LYS A   2      56.437 -13.105  32.914  0.00  0.00    -0.089 HD
ENDBRANCH  39  40
ENDBRANCH  38  39
ENDBRANCH  37  38
ENDBRANCH  36  37
ENDBRANCH  24  36
ENDBRANCH   1  24
TORSDOF 20
REMARK  Name = ../refined-set-2016/4ty6/4ty6_pocket.pdb
REMARK  225 active torsions:
REMARK  status: ('A' for Active; 'I' for Inactive)
REMARK    1  A    between atoms: _1  and  _5
REMARK    2  A    between atoms: _5  and  _6
REMARK    3  A    between atoms: _5  and  _8
REMARK    4  A    between atoms: _8  and  _9
REMARK    5  A    between atoms: _12  and  _14
REMARK    6  A    between atoms: _14  and  _15
REMARK    7  A    between atoms: _14  and  _17
REMARK    8  A    between atoms: _20  and  _22
REMARK    9  A    between atoms: _22  and  _23
REMARK   10  A    between atoms: _22  and  _25
REMARK   11  A    between atoms: _25  and  _26
REMARK   12  A    between atoms: _29  and  _31
REMARK   13  A    between atoms: _31  and  _32
REMARK   14  A    between atoms: _31  and  _34
REMARK   15  A    between atoms: _34  and  _35
REMARK   16  A    between atoms: _38  and  _40
REMARK   17  A    between atoms: _40  and  _41
REMARK   18  A    between atoms: _40  and  _43
REMARK   19  A    between atoms: _43  and  _44
REMARK   20  A    between atoms: _49  and  _51
REMARK   21  A    between atoms: _51  and  _52
REMARK   22  A    between atoms: _51  and  _54
REMARK   23  A    between atoms: _54  and  _55
REMARK   24  A    between atoms: _58  and  _60
REMARK   25  A    between atoms: _60  and  _61
REMARK   26  A    between atoms: _60  and  _63
REMARK   27  A    between atoms: _63  and  _64
REMARK   28  A    between atoms: _67  and  _69
REMARK   29  A    between atoms: _69  and  _70
REMARK   30  A    between atoms: _69  and  _72
REMARK   31  A    between atoms: _72  and  _73
REMARK   32  A    between atoms: _73  and  _74
REMARK   33  A    between atoms: _79  and  _81
REMARK   34  A    between atoms: _81  and  _82
REMARK   35  A    between atoms: _81  and  _84
REMARK   36  A    between atoms: _84  and  _85
REMARK   37  A    between atoms: _85  and  _86
REMARK   38  A    between atoms: _86  and  _87
REMARK   39  A    between atoms: _96  and  _98
REMARK   40  A    between atoms: _98  and  _99
REMARK   41  A    between atoms: _98  and  _101
REMARK   42  A    between atoms: _101  and  _102
REMARK   43  A    between atoms: _107  and  _109
REMARK   44  A    between atoms: _109  and  _110
REMARK   45  A    between atoms: _109  and  _112
REMARK   46  A    between atoms: _112  and  _113
REMARK   47  A    between atoms: _116  and  _118
REMARK   48  A    between atoms: _118  and  _119
REMARK   49  A    between atoms: _118  and  _121
REMARK   50  A    between atoms: _121  and  _122
REMARK   51  A    between atoms: _122  and  _157
REMARK   52  A    between atoms: _123  and  _125
REMARK   53  A    between atoms: _125  and  _126
REMARK   54  A    between atoms: _128  and  _130
REMARK   55  A    between atoms: _130  and  _131
REMARK   56  A    between atoms: _134  and  _136
REMARK   57  A    between atoms: _136  and  _137
REMARK   58  A    between atoms: _140  and  _142
REMARK   59  A    between atoms: _142  and  _143
REMARK   60  A    between atoms: _142  and  _145
REMARK   61  A    between atoms: _145  and  _146
REMARK   62  A    between atoms: _151  and  _153
REMARK   63  A    between atoms: _153  and  _154
REMARK   64  A    between atoms: _153  and  _156
REMARK   65  A    between atoms: _156  and  _157
REMARK   66  A    between atoms: _158  and  _160
REMARK   67  A    between atoms: _160  and  _161
REMARK   68  A    between atoms: _160  and  _163
REMARK   69  A    between atoms: _163  and  _164
REMARK   70  A    between atoms: _170  and  _172
REMARK   71  A    between atoms: _172  and  _173
REMARK   72  A    between atoms: _172  and  _175
REMARK   73  A    between atoms: _175  and  _176
REMARK   74  A    between atoms: _181  and  _182
REMARK   75  A    between atoms: _184  and  _186
REMARK   76  A    between atoms: _186  and  _187
REMARK   77  A    between atoms: _186  and  _189
REMARK   78  A    between atoms: _192  and  _194
REMARK   79  A    between atoms: _194  and  _195
REMARK   80  A    between atoms: _194  and  _197
REMARK   81  A    between atoms: _197  and  _198
REMARK   82  A    between atoms: _198  and  _199
REMARK   83  A    between atoms: _204  and  _206
REMARK   84  A    between atoms: _206  and  _207
REMARK   85  A    between atoms: _210  and  _212
REMARK   86  A    between atoms: _212  and  _213
REMARK   87  A    between atoms: _212  and  _215
REMARK   88  A    between atoms: _215  and  _216
REMARK   89  A    between atoms: _219  and  _221
REMARK   90  A    between atoms: _221  and  _222
REMARK   91  A    between atoms: _221  and  _224
REMARK   92  A    between atoms: _227  and  _229
REMARK   93  A    between atoms: _229  and  _230
REMARK   94  A    between atoms: _229  and  _232
REMARK   95  A    between atoms: _232  and  _233
REMARK   96  A    between atoms: _243  and  _245
REMARK   97  A    between atoms: _245  and  _246
REMARK   98  A    between atoms: _248  and  _250
REMARK   99  A    between atoms: _250  and  _251
REMARK  100  A    between atoms: _250  and  _253
REMARK  101  A    between atoms: _253  and  _254
REMARK  102  A    between atoms: _259  and  _260
REMARK  103  A    between atoms: _262  and  _264
REMARK  104  A    between atoms: _264  and  _265
REMARK  105  A    between atoms: _264  and  _267
REMARK  106  A    between atoms: _267  and  _268
REMARK  107  A    between atoms: _271  and  _273
REMARK  108  A    between atoms: _273  and  _274
REMARK  109  A    between atoms: _273  and  _276
REMARK  110  A    between atoms: _276  and  _277
REMARK  111  A    between atoms: _280  and  _282
REMARK  112  A    between atoms: _282  and  _283
REMARK  113  A    between atoms: _282  and  _285
REMARK  114  A    between atoms: _285  and  _286
REMARK  115  A    between atoms: _286  and  _287
REMARK  116  A    between atoms: _287  and  _288
REMARK  117  A    between atoms: _288  and  _289
REMARK  118  A    between atoms: _293  and  _295
REMARK  119  A    between atoms: _295  and  _296
REMARK  120  A    between atoms: _295  and  _298
REMARK  121  A    between atoms: _298  and  _299
REMARK  122  A    between atoms: _302  and  _304
REMARK  123  A    between atoms: _304  and  _305
REMARK  124  A    between atoms: _304  and  _307
REMARK  125  A    between atoms: _307  and  _308
REMARK  126  A    between atoms: _308  and  _309
REMARK  127  A    between atoms: _314  and  _316
REMARK  128  A    between atoms: _316  and  _317
REMARK  129  A    between atoms: _316  and  _319
REMARK  130  A    between atoms: _319  and  _320
REMARK  131  A    between atoms: _325  and  _326
REMARK  132  A    between atoms: _328  and  _330
REMARK  133  A    between atoms: _330  and  _331
REMARK  134  A    between atoms: _334  and  _336
REMARK  135  A    between atoms: _336  and  _337
REMARK  136  A    between atoms: _336  and  _339
REMARK  137  A    between atoms: _339  and  _340
REMARK  138  A    between atoms: _340  and  _341
REMARK  139  A    between atoms: _341  and  _342
REMARK  140  A    between atoms: _342  and  _343
REMARK  141  A    between atoms: _347  and  _349
REMARK  142  A    between atoms: _349  and  _350
REMARK  143  A    between atoms: _349  and  _352
REMARK  144  A    between atoms: _352  and  _353
REMARK  145  A    between atoms: _356  and  _358
REMARK  146  A    between atoms: _358  and  _359
REMARK  147  A    between atoms: _362  and  _364
REMARK  148  A    between atoms: _364  and  _365
REMARK  149  A    between atoms: _364  and  _367
REMARK  150  A    between atoms: _367  and  _368
REMARK  151  A    between atoms: _368  and  _482
REMARK  152  A    between atoms: _369  and  _371
REMARK  153  A    between atoms: _371  and  _372
REMARK  154  A    between atoms: _371  and  _374
REMARK  155  A    between atoms: _374  and  _375
REMARK  156  A    between atoms: _375  and  _376
REMARK  157  A    between atoms: _376  and  _377
REMARK  158  A    between atoms: _377  and  _378
REMARK  159  A    between atoms: _382  and  _384
REMARK  160  A    between atoms: _384  and  _385
REMARK  161  A    between atoms: _387  and  _389
REMARK  162  A    between atoms: _389  and  _390
REMARK  163  A    between atoms: _389  and  _392
REMARK  164  A    between atoms: _392  and  _393
REMARK  165  A    between atoms: _396  and  _398
REMARK  166  A    between atoms: _398  and  _399
REMARK  167  A    between atoms: _398  and  _401
REMARK  168  A    between atoms: _401  and  _402
REMARK  169  A    between atoms: _404  and  _406
REMARK  170  A    between atoms: _406  and  _407
REMARK  171  A    between atoms: _409  and  _411
REMARK  172  A    between atoms: _411  and  _412
REMARK  173  A    between atoms: _414  and  _416
REMARK  174  A    between atoms: _416  and  _417
REMARK  175  A    between atoms: _416  and  _419
REMARK  176  A    between atoms: _419  and  _420
REMARK  177  A    between atoms: _423  and  _425
REMARK  178  A    between atoms: _425  and  _426
REMARK  179  A    between atoms: _425  and  _428
REMARK  180  A    between atoms: _428  and  _429
REMARK  181  A    between atoms: _432  and  _434
REMARK  182  A    between atoms: _434  and  _435
REMARK  183  A    between atoms: _434  and  _437
REMARK  184  A    between atoms: _437  and  _438
REMARK  185  A    between atoms: _440  and  _442
REMARK  186  A    between atoms: _442  and  _443
REMARK  187  A    between atoms: _442  and  _445
REMARK  188  A    between atoms: _445  and  _446
REMARK  189  A    between atoms: _456  and  _458
REMARK  190  A    between atoms: _458  and  _459
REMARK  191  A    between atoms: _461  and  _463
REMARK  192  A    between atoms: _463  and  _464
REMARK  193  A    between atoms: _463  and  _466
REMARK  194  A    between atoms: _466  and  _467
REMARK  195  A    between atoms: _467  and  _468
REMARK  196  A    between atoms: _471  and  _473
REMARK  197  A    between atoms: _473  and  _474
REMARK  198  A    between atoms: _476  and  _478
REMARK  199  A    between atoms: _478  and  _479
REMARK  200  A    between atoms: _478  and  _481
REMARK  201  A    between atoms: _481  and  _482
REMARK  202  A    between atoms: _483  and  _485
REMARK  203  A    between atoms: _485  and  _486
REMARK  204  A    between atoms: _489  and  _491
REMARK  205  A    between atoms: _491  and  _492
REMARK  206  A    between atoms: _491  and  _494
REMARK  207  A    between atoms: _494  and  _495
REMARK  208  A    between atoms: _495  and  _496
REMARK  209  A    between atoms: _501  and  _503
REMARK  210  A    between atoms: _503  and  _504
REMARK  211  A    between atoms: _503  and  _506
REMARK  212  A    between atoms: _506  and  _507
REMARK  213  A    between atoms: _507  and  _508
REMARK  214  A    between atoms: _508  and  _509
REMARK  215  A    between atoms: _519  and  _520
REMARK  216  A    between atoms: _525  and  _527
REMARK  217  A    between atoms: _527  and  _528
REMARK  218  A    between atoms: _530  and  _532
REMARK  219  A    between atoms: _532  and  _533
REMARK  220  A    between atoms: _532  and  _535
REMARK  221  A    between atoms: _538  and  _540
REMARK  222  A    between atoms: _540  and  _541
REMARK  223  A    between atoms: _540  and  _543
REMARK  224  A    between atoms: _543  and  _544
REMARK  225  A    between atoms: _549  and  _550
REMARK                            x       y       z     vdW  Elec       q    Type
REMARK                         _______ _______ _______ _____ _____    ______ ____
ROOT
ATOM      1  CG  TYR A   1      29.272 -12.379  20.639  0.00  0.00    -0.020 A 
ATOM      2  CD2 TYR A   1      29.116 -11.674  21.831  0.00  0.00    -0.001 A 
ATOM      3  CE2 TYR A   1      30.189 -11.485  22.707  0.00  0.00    +0.036 A 
ATOM      4  CZ  TYR A   1      31.446 -11.963  22.367  0.00  0.00    +0.134 A 
ATOM      5  CE1 TYR A   1      31.625 -12.650  21.175  0.00  0.00    +0.036 A 
ATOM      6  CD1 TYR A   1      30.541 -12.861  20.327  0.00  0.00    -0.001 A 
ENDROOT
BRANCH   4   7
ATOM      7  OH  TYR A   1      32.537 -11.742  23.180  0.00  0.00    -0.506 OA
ATOM      8  HH  TYR A   1      32.371 -12.144  24.069  0.00  0.00    +0.292 HD
ENDBRANCH   4   7
BRANCH   1   9
ATOM      9  CB  TYR A   1      28.102 -12.599  19.701  0.00  0.00    +0.051 C 
BRANCH   9  10
ATOM     10  CA  TYR A   1      28.136 -11.630  18.497  0.00  0.00    +0.137 C 
BRANCH  10  11
ATOM     11  N   TYR A   1      27.722 -10.290  18.900  0.00  0.00    -0.239 NA
ATOM     12  H   TYR A   1      26.713 -10.124  19.092  0.00  0.00    +0.142 HD
ENDBRANCH  10  11
BRANCH  10  13
ATOM     13  C   TYR A   1      27.354 -12.155  17.297  0.00  0.00    +0.224 C 
ATOM     14  O   TYR A   1      26.693 -13.196  17.367  0.00  0.00    -0.287 OA
ENDBRANCH  10  13
ENDBRANCH   9  10
ENDBRANCH   1   9
TORSDOF 5
REMARK  Name = ../refined-set-2016/4ty6/4ty6_pocket.pdb
REMARK  225 active torsions:
REMARK  status: ('A' for Active; 'I' for Inactive)
REMARK    1  A    between atoms: _1  and  _5
REMARK    2  A    between atoms: _5  and  _6
REMARK    3  A    between atoms: _5  and  _8
REMARK    4  A    between atoms: _8  and  _9
REMARK    5  A    between atoms: _12  and  _14
REMARK    6  A    between atoms: _14  and  _15
REMARK    7  A    between atoms: _14  and  _17
REMARK    8  A    between atoms: _20  and  _22
REMARK    9  A    between atoms: _22  and  _23
REMARK   10  A    between atoms: _22  and  _25
REMARK   11  A    between atoms: _25  and  _26
REMARK   12  A    between atoms: _29  and  _31
REMARK   13  A    between atoms: _31  and  _32
REMARK   14  A    between atoms: _31  and  _34
REMARK   15  A    between atoms: _34  and  _35
REMARK   16  A    between atoms: _38  and  _40
REMARK   17  A    between atoms: _40  and  _41
REMARK   18  A    between atoms: _40  and  _43
REMARK   19  A    between atoms: _43  and  _44
REMARK   20  A    between atoms: _49  and  _51
REMARK   21  A    between atoms: _51  and  _52
REMARK   22  A    between atoms: _51  and  _54
REMARK   23  A    between atoms: _54  and  _55
REMARK   24  A    between atoms: _58  and  _60
REMARK   25  A    between atoms: _60  and  _61
REMARK   26  A    between atoms: _60  and  _63
REMARK   27  A    between atoms: _63  and  _64
REMARK   28  A    between atoms: _67  and  _69
REMARK   29  A    between atoms: _69  and  _70
REMARK   30  A    between atoms: _69  and  _72
REMARK   31  A    between atoms: _72  and  _73
REMARK   32  A    between atoms: _73  and  _74
REMARK   33  A    between atoms: _79  and  _81
REMARK   34  A    between atoms: _81  and  _82
REMARK   35  A    between atoms: _81  and  _84
REMARK   36  A    between atoms: _84  and  _85
REMARK   37  A    between atoms: _85  and  _86
REMARK   38  A    between atoms: _86  and  _87
REMARK   39  A    between atoms: _96  and  _98
REMARK   40  A    between atoms: _98  and  _99
REMARK   41  A    between atoms: _98  and  _101
REMARK   42  A    between atoms: _101  and  _102
REMARK   43  A    between atoms: _107  and  _109
REMARK   44  A    between atoms: _109  and  _110
REMARK   45  A    between atoms: _109  and  _112
REMARK   46  A    between atoms: _112  and  _113
REMARK   47  A    between atoms: _116  and  _118
REMARK   48  A    between atoms: _118  and  _119
REMARK   49  A    between atoms: _118  and  _121
REMARK   50  A    between atoms: _121  and  _122
REMARK   51  A    between atoms: _122  and  _157
REMARK   52  A    between atoms: _123  and  _125
REMARK   53  A    between atoms: _125  and  _126
REMARK   54  A    between atoms: _128  and  _130
REMARK   55  A    between atoms: _130  and  _131
REMARK   56  A    between atoms: _134  and  _136
REMARK   57  A    between atoms: _136  and  _137
REMARK   58  A    between atoms: _140  and  _142
REMARK   59  A    between atoms: _142  and  _143
REMARK   60  A    between atoms: _142  and  _145
REMARK   61  A    between atoms: _145  and  _146
REMARK   62  A    between atoms: _151  and  _153
REMARK   63  A    between atoms: _153  and  _154
REMARK   64  A    between atoms: _153  and  _156
REMARK   65  A    between atoms: _156  and  _157
REMARK   66  A    between atoms: _158  and  _160
REMARK   67  A    between atoms: _160  and  _161
REMARK   68  A    between atoms: _160  and  _163
REMARK   69  A    between atoms: _163  and  _164
REMARK   70  A    between atoms: _170  and  _172
REMARK   71  A    between atoms: _172  and  _173
REMARK   72  A    between atoms: _172  and  _175
REMARK   73  A    between atoms: _175  and  _176
REMARK   74  A    between atoms: _181  and  _182
REMARK   75  A    between atoms: _184  and  _186
REMARK   76  A    between atoms: _186  and  _187
REMARK   77  A    between atoms: _186  and  _189
REMARK   78  A    between atoms: _192  and  _194
REMARK   79  A    between atoms: _194  and  _195
REMARK   80  A    between atoms: _194  and  _197
REMARK   81  A    between atoms: _197  and  _198
REMARK   82  A    between atoms: _198  and  _199
REMARK   83  A    between atoms: _204  and  _206
REMARK   84  A    between atoms: _206  and  _207
REMARK   85  A    between atoms: _210  and  _212
REMARK   86  A    between atoms: _212  and  _213
REMARK   87  A    between atoms: _212  and  _215
REMARK   88  A    between atoms: _215  and  _216
REMARK   89  A    between atoms: _219  and  _221
REMARK   90  A    between atoms: _221  and  _222
REMARK   91  A    between atoms: _221  and  _224
REMARK   92  A    between atoms: _227  and  _229
REMARK   93  A    between atoms: _229  and  _230
REMARK   94  A    between atoms: _229  and  _232
REMARK   95  A    between atoms: _232  and  _233
REMARK   96  A    between atoms: _243  and  _245
REMARK   97  A    between atoms: _245  and  _246
REMARK   98  A    between atoms: _248  and  _250
REMARK   99  A    between atoms: _250  and  _251
REMARK  100  A    between atoms: _250  and  _253
REMARK  101  A    between atoms: _253  and  _254
REMARK  102  A    between atoms: _259  and  _260
REMARK  103  A    between atoms: _262  and  _264
REMARK  104  A    between atoms: _264  and  _265
REMARK  105  A    between atoms: _264  and  _267
REMARK  106  A    between atoms: _267  and  _268
REMARK  107  A    between atoms: _271  and  _273
REMARK  108  A    between atoms: _273  and  _274
REMARK  109  A    between atoms: _273  and  _276
REMARK  110  A    between atoms: _276  and  _277
REMARK  111  A    between atoms: _280  and  _282
REMARK  112  A    between atoms: _282  and  _283
REMARK  113  A    between atoms: _282  and  _285
REMARK  114  A    between atoms: _285  and  _286
REMARK  115  A    between atoms: _286  and  _287
REMARK  116  A    between atoms: _287  and  _288
REMARK  117  A    between atoms: _288  and  _289
REMARK  118  A    between atoms: _293  and  _295
REMARK  119  A    between atoms: _295  and  _296
REMARK  120  A    between atoms: _295  and  _298
REMARK  121  A    between atoms: _298  and  _299
REMARK  122  A    between atoms: _302  and  _304
REMARK  123  A    between atoms: _304  and  _305
REMARK  124  A    between atoms: _304  and  _307
REMARK  125  A    between atoms: _307  and  _308
REMARK  126  A    between atoms: _308  and  _309
REMARK  127  A    between atoms: _314  and  _316
REMARK  128  A    between atoms: _316  and  _317
REMARK  129  A    between atoms: _316  and  _319
REMARK  130  A    between atoms: _319  and  _320
REMARK  131  A    between atoms: _325  and  _326
REMARK  132  A    between atoms: _328  and  _330
REMARK  133  A    between atoms: _330  and  _331
REMARK  134  A    between atoms: _334  and  _336
REMARK  135  A    between atoms: _336  and  _337
REMARK  136  A    between atoms: _336  and  _339
REMARK  137  A    between atoms: _339  and  _340
REMARK  138  A    between atoms: _340  and  _341
REMARK  139  A    between atoms: _341  and  _342
REMARK  140  A    between atoms: _342  and  _343
REMARK  141  A    between atoms: _347  and  _349
REMARK  142  A    between atoms: _349  and  _350
REMARK  143  A    between atoms: _349  and  _352
REMARK  144  A    between atoms: _352  and  _353
REMARK  145  A    between atoms: _356  and  _358
REMARK  146  A    between atoms: _358  and  _359
REMARK  147  A    between atoms: _362  and  _364
REMARK  148  A    between atoms: _364  and  _365
REMARK  149  A    between atoms: _364  and  _367
REMARK  150  A    between atoms: _367  and  _368
REMARK  151  A    between atoms: _368  and  _482
REMARK  152  A    between atoms: _369  and  _371
REMARK  153  A    between atoms: _371  and  _372
REMARK  154  A    between atoms: _371  and  _374
REMARK  155  A    between atoms: _374  and  _375
REMARK  156  A    between atoms: _375  and  _376
REMARK  157  A    between atoms: _376  and  _377
REMARK  158  A    between atoms: _377  and  _378
REMARK  159  A    between atoms: _382  and  _384
REMARK  160  A    between atoms: _384  and  _385
REMARK  161  A    between atoms: _387  and  _389
REMARK  162  A    between atoms: _389  and  _390
REMARK  163  A    between atoms: _389  and  _392
REMARK  164  A    between atoms: _392  and  _393
REMARK  165  A    between atoms: _396  and  _398
REMARK  166  A    between atoms: _398  and  _399
REMARK  167  A    between atoms: _398  and  _401
REMARK  168  A    between atoms: _401  and  _402
REMARK  169  A    between atoms: _404  and  _406
REMARK  170  A    between atoms: _406  and  _407
REMARK  171  A    between atoms: _409  and  _411
REMARK  172  A    between atoms: _411  and  _412
REMARK  173  A    between atoms: _414  and  _416
REMARK  174  A    between atoms: _416  and  _417
REMARK  175  A    between atoms: _416  and  _419
REMARK  176  A    between atoms: _419  and  _420
REMARK  177  A    between atoms: _423  and  _425
REMARK  178  A    between atoms: _425  and  _426
REMARK  179  A    between atoms: _425  and  _428
REMARK  180  A    between atoms: _428  and  _429
REMARK  181  A    between atoms: _432  and  _434
REMARK  182  A    between atoms: _434  and  _435
REMARK  183  A    between atoms: _434  and  _437
REMARK  184  A    between atoms: _437  and  _438
REMARK  185  A    between atoms: _440  and  _442
REMARK  186  A    between atoms: _442  and  _443
REMARK  187  A    between atoms: _442  and  _445
REMARK  188  A    between atoms: _445  and  _446
REMARK  189  A    between atoms: _456  and  _458
REMARK  190  A    between atoms: _458  and  _459
REMARK  191  A    between atoms: _461  and  _463
REMARK  192  A    between atoms: _463  and  _464
REMARK  193  A    between atoms: _463  and  _466
REMARK  194  A    between atoms: _466  and  _467
REMARK  195  A    between atoms: _467  and  _468
REMARK  196  A    between atoms: _471  and  _473
REMARK  197  A    between atoms: _473  and  _474
REMARK  198  A    between atoms: _476  and  _478
REMARK  199  A    between atoms: _478  and  _479
REMARK  200  A    between atoms: _478  and  _481
REMARK  201  A    between atoms: _481  and  _482
REMARK  202  A    between atoms: _483  and  _485
REMARK  203  A    between atoms: _485  and  _486
REMARK  204  A    between atoms: _489  and  _491
REMARK  205  A    between atoms: _491  and  _492
REMARK  206  A    between atoms: _491  and  _494
REMARK  207  A    between atoms: _494  and  _495
REMARK  208  A    between atoms: _495  and  _496
REMARK  209  A    between atoms: _501  and  _503
REMARK  210  A    between atoms: _503  and  _504
REMARK  211  A    between atoms: _503  and  _506
REMARK  212  A    between atoms: _506  and  _507
REMARK  213  A    between atoms: _507  and  _508
REMARK  214  A    between atoms: _508  and  _509
REMARK  215  A    between atoms: _519  and  _520
REMARK  216  A    between atoms: _525  and  _527
REMARK  217  A    between atoms: _527  and  _528
REMARK  218  A    between atoms: _530  and  _532
REMARK  219  A    between atoms: _532  and  _533
REMARK  220  A    between atoms: _532  and  _535
REMARK  221  A    between atoms: _538  and  _540
REMARK  222  A    between atoms: _540  and  _541
REMARK  223  A    between atoms: _540  and  _543
REMARK  224  A    between atoms: _543  and  _544
REMARK  225  A    between atoms: _549  and  _550
REMARK                            x       y       z     vdW  Elec       q    Type
REMARK                         _______ _______ _______ _____ _____    ______ ____
ROOT
ATOM      1  CA  ALA A   1      29.040  -8.441  30.850  0.00  0.00    +0.133 C 
ATOM      2  CB  ALA A   1      29.325  -8.892  32.288  0.00  0.00    +0.027 C 
ENDROOT
BRANCH   1   3
ATOM      3  N   ALA A   1      28.610  -9.568  30.025  0.00  0.00    -0.239 NA
ATOM      4  H   ALA A   1      29.315 -10.090  29.466  0.00  0.00    +0.142 HD
ENDBRANCH   1   3
BRANCH   1   5
ATOM      5  C   ALA A   1      30.275  -7.822  30.232  0.00  0.00    +0.224 C 
ATOM      6  O   ALA A   1      31.188  -8.523  29.789  0.00  0.00    -0.287 OA
ENDBRANCH   1   5
TORSDOF 2
REMARK  Name = ../refined-set-2016/4ty6/4ty6_pocket.pdb
REMARK  225 active torsions:
REMARK  status: ('A' for Active; 'I' for Inactive)
REMARK    1  A    between atoms: _1  and  _5
REMARK    2  A    between atoms: _5  and  _6
REMARK    3  A    between atoms: _5  and  _8
REMARK    4  A    between atoms: _8  and  _9
REMARK    5  A    between atoms: _12  and  _14
REMARK    6  A    between atoms: _14  and  _15
REMARK    7  A    between atoms: _14  and  _17
REMARK    8  A    between atoms: _20  and  _22
REMARK    9  A    between atoms: _22  and  _23
REMARK   10  A    between atoms: _22  and  _25
REMARK   11  A    between atoms: _25  and  _26
REMARK   12  A    between atoms: _29  and  _31
REMARK   13  A    between atoms: _31  and  _32
REMARK   14  A    between atoms: _31  and  _34
REMARK   15  A    between atoms: _34  and  _35
REMARK   16  A    between atoms: _38  and  _40
REMARK   17  A    between atoms: _40  and  _41
REMARK   18  A    between atoms: _40  and  _43
REMARK   19  A    between atoms: _43  and  _44
REMARK   20  A    between atoms: _49  and  _51
REMARK   21  A    between atoms: _51  and  _52
REMARK   22  A    between atoms: _51  and  _54
REMARK   23  A    between atoms: _54  and  _55
REMARK   24  A    between atoms: _58  and  _60
REMARK   25  A    between atoms: _60  and  _61
REMARK   26  A    between atoms: _60  and  _63
REMARK   27  A    between atoms: _63  and  _64
REMARK   28  A    between atoms: _67  and  _69
REMARK   29  A    between atoms: _69  and  _70
REMARK   30  A    between atoms: _69  and  _72
REMARK   31  A    between atoms: _72  and  _73
REMARK   32  A    between atoms: _73  and  _74
REMARK   33  A    between atoms: _79  and  _81
REMARK   34  A    between atoms: _81  and  _82
REMARK   35  A    between atoms: _81  and  _84
REMARK   36  A    between atoms: _84  and  _85
REMARK   37  A    between atoms: _85  and  _86
REMARK   38  A    between atoms: _86  and  _87
REMARK   39  A    between atoms: _96  and  _98
REMARK   40  A    between atoms: _98  and  _99
REMARK   41  A    between atoms: _98  and  _101
REMARK   42  A    between atoms: _101  and  _102
REMARK   43  A    between atoms: _107  and  _109
REMARK   44  A    between atoms: _109  and  _110
REMARK   45  A    between atoms: _109  and  _112
REMARK   46  A    between atoms: _112  and  _113
REMARK   47  A    between atoms: _116  and  _118
REMARK   48  A    between atoms: _118  and  _119
REMARK   49  A    between atoms: _118  and  _121
REMARK   50  A    between atoms: _121  and  _122
REMARK   51  A    between atoms: _122  and  _157
REMARK   52  A    between atoms: _123  and  _125
REMARK   53  A    between atoms: _125  and  _126
REMARK   54  A    between atoms: _128  and  _130
REMARK   55  A    between atoms: _130  and  _131
REMARK   56  A    between atoms: _134  and  _136
REMARK   57  A    between atoms: _136  and  _137
REMARK   58  A    between atoms: _140  and  _142
REMARK   59  A    between atoms: _142  and  _143
REMARK   60  A    between atoms: _142  and  _145
REMARK   61  A    between atoms: _145  and  _146
REMARK   62  A    between atoms: _151  and  _153
REMARK   63  A    between atoms: _153  and  _154
REMARK   64  A    between atoms: _153  and  _156
REMARK   65  A    between atoms: _156  and  _157
REMARK   66  A    between atoms: _158  and  _160
REMARK   67  A    between atoms: _160  and  _161
REMARK   68  A    between atoms: _160  and  _163
REMARK   69  A    between atoms: _163  and  _164
REMARK   70  A    between atoms: _170  and  _172
REMARK   71  A    between atoms: _172  and  _173
REMARK   72  A    between atoms: _172  and  _175
REMARK   73  A    between atoms: _175  and  _176
REMARK   74  A    between atoms: _181  and  _182
REMARK   75  A    between atoms: _184  and  _186
REMARK   76  A    between atoms: _186  and  _187
REMARK   77  A    between atoms: _186  and  _189
REMARK   78  A    between atoms: _192  and  _194
REMARK   79  A    between atoms: _194  and  _195
REMARK   80  A    between atoms: _194  and  _197
REMARK   81  A    between atoms: _197  and  _198
REMARK   82  A    between atoms: _198  and  _199
REMARK   83  A    between atoms: _204  and  _206
REMARK   84  A    between atoms: _206  and  _207
REMARK   85  A    between atoms: _210  and  _212
REMARK   86  A    between atoms: _212  and  _213
REMARK   87  A    between atoms: _212  and  _215
REMARK   88  A    between atoms: _215  and  _216
REMARK   89  A    between atoms: _219  and  _221
REMARK   90  A    between atoms: _221  and  _222
REMARK   91  A    between atoms: _221  and  _224
REMARK   92  A    between atoms: _227  and  _229
REMARK   93  A    between atoms: _229  and  _230
REMARK   94  A    between atoms: _229  and  _232
REMARK   95  A    between atoms: _232  and  _233
REMARK   96  A    between atoms: _243  and  _245
REMARK   97  A    between atoms: _245  and  _246
REMARK   98  A    between atoms: _248  and  _250
REMARK   99  A    between atoms: _250  and  _251
REMARK  100  A    between atoms: _250  and  _253
REMARK  101  A    between atoms: _253  and  _254
REMARK  102  A    between atoms: _259  and  _260
REMARK  103  A    between atoms: _262  and  _264
REMARK  104  A    between atoms: _264  and  _265
REMARK  105  A    between atoms: _264  and  _267
REMARK  106  A    between atoms: _267  and  _268
REMARK  107  A    between atoms: _271  and  _273
REMARK  108  A    between atoms: _273  and  _274
REMARK  109  A    between atoms: _273  and  _276
REMARK  110  A    between atoms: _276  and  _277
REMARK  111  A    between atoms: _280  and  _282
REMARK  112  A    between atoms: _282  and  _283
REMARK  113  A    between atoms: _282  and  _285
REMARK  114  A    between atoms: _285  and  _286
REMARK  115  A    between atoms: _286  and  _287
REMARK  116  A    between atoms: _287  and  _288
REMARK  117  A    between atoms: _288  and  _289
REMARK  118  A    between atoms: _293  and  _295
REMARK  119  A    between atoms: _295  and  _296
REMARK  120  A    between atoms: _295  and  _298
REMARK  121  A    between atoms: _298  and  _299
REMARK  122  A    between atoms: _302  and  _304
REMARK  123  A    between atoms: _304  and  _305
REMARK  124  A    between atoms: _304  and  _307
REMARK  125  A    between atoms: _307  and  _308
REMARK  126  A    between atoms: _308  and  _309
REMARK  127  A    between atoms: _314  and  _316
REMARK  128  A    between atoms: _316  and  _317
REMARK  129  A    between atoms: _316  and  _319
REMARK  130  A    between atoms: _319  and  _320
REMARK  131  A    between atoms: _325  and  _326
REMARK  132  A    between atoms: _328  and  _330
REMARK  133  A    between atoms: _330  and  _331
REMARK  134  A    between atoms: _334  and  _336
REMARK  135  A    between atoms: _336  and  _337
REMARK  136  A    between atoms: _336  and  _339
REMARK  137  A    between atoms: _339  and  _340
REMARK  138  A    between atoms: _340  and  _341
REMARK  139  A    between atoms: _341  and  _342
REMARK  140  A    between atoms: _342  and  _343
REMARK  141  A    between atoms: _347  and  _349
REMARK  142  A    between atoms: _349  and  _350
REMARK  143  A    between atoms: _349  and  _352
REMARK  144  A    between atoms: _352  and  _353
REMARK  145  A    between atoms: _356  and  _358
REMARK  146  A    between atoms: _358  and  _359
REMARK  147  A    between atoms: _362  and  _364
REMARK  148  A    between atoms: _364  and  _365
REMARK  149  A    between atoms: _364  and  _367
REMARK  150  A    between atoms: _367  and  _368
REMARK  151  A    between atoms: _368  and  _482
REMARK  152  A    between atoms: _369  and  _371
REMARK  153  A    between atoms: _371  and  _372
REMARK  154  A    between atoms: _371  and  _374
REMARK  155  A    between atoms: _374  and  _375
REMARK  156  A    between atoms: _375  and  _376
REMARK  157  A    between atoms: _376  and  _377
REMARK  158  A    between atoms: _377  and  _378
REMARK  159  A    between atoms: _382  and  _384
REMARK  160  A    between atoms: _384  and  _385
REMARK  161  A    between atoms: _387  and  _389
REMARK  162  A    between atoms: _389  and  _390
REMARK  163  A    between atoms: _389  and  _392
REMARK  164  A    between atoms: _392  and  _393
REMARK  165  A    between atoms: _396  and  _398
REMARK  166  A    between atoms: _398  and  _399
REMARK  167  A    between atoms: _398  and  _401
REMARK  168  A    between atoms: _401  and  _402
REMARK  169  A    between atoms: _404  and  _406
REMARK  170  A    between atoms: _406  and  _407
REMARK  171  A    between atoms: _409  and  _411
REMARK  172  A    between atoms: _411  and  _412
REMARK  173  A    between atoms: _414  and  _416
REMARK  174  A    between atoms: _416  and  _417
REMARK  175  A    between atoms: _416  and  _419
REMARK  176  A    between atoms: _419  and  _420
REMARK  177  A    between atoms: _423  and  _425
REMARK  178  A    between atoms: _425  and  _426
REMARK  179  A    between atoms: _425  and  _428
REMARK  180  A    between atoms: _428  and  _429
REMARK  181  A    between atoms: _432  and  _434
REMARK  182  A    between atoms: _434  and  _435
REMARK  183  A    between atoms: _434  and  _437
REMARK  184  A    between atoms: _437  and  _438
REMARK  185  A    between atoms: _440  and  _442
REMARK  186  A    between atoms: _442  and  _443
REMARK  187  A    between atoms: _442  and  _445
REMARK  188  A    between atoms: _445  and  _446
REMARK  189  A    between atoms: _456  and  _458
REMARK  190  A    between atoms: _458  and  _459
REMARK  191  A    between atoms: _461  and  _463
REMARK  192  A    between atoms: _463  and  _464
REMARK  193  A    between atoms: _463  and  _466
REMARK  194  A    between atoms: _466  and  _467
REMARK  195  A    between atoms: _467  and  _468
REMARK  196  A    between atoms: _471  and  _473
REMARK  197  A    between atoms: _473  and  _474
REMARK  198  A    between atoms: _476  and  _478
REMARK  199  A    between atoms: _478  and  _479
REMARK  200  A    between atoms: _478  and  _481
REMARK  201  A    between atoms: _481  and  _482
REMARK  202  A    between atoms: _483  and  _485
REMARK  203  A    between atoms: _485  and  _486
REMARK  204  A    between atoms: _489  and  _491
REMARK  205  A    between atoms: _491  and  _492
REMARK  206  A    between atoms: _491  and  _494
REMARK  207  A    between atoms: _494  and  _495
REMARK  208  A    between atoms: _495  and  _496
REMARK  209  A    between atoms: _501  and  _503
REMARK  210  A    between atoms: _503  and  _504
REMARK  211  A    between atoms: _503  and  _506
REMARK  212  A    between atoms: _506  and  _507
REMARK  213  A    between atoms: _507  and  _508
REMARK  214  A    between atoms: _508  and  _509
REMARK  215  A    between atoms: _519  and  _520
REMARK  216  A    between atoms: _525  and  _527
REMARK  217  A    between atoms: _527  and  _528
REMARK  218  A    between atoms: _530  and  _532
REMARK  219  A    between atoms: _532  and  _533
REMARK  220  A    between atoms: _532  and  _535
REMARK  221  A    between atoms: _538  and  _540
REMARK  222  A    between atoms: _540  and  _541
REMARK  223  A    between atoms: _540  and  _543
REMARK  224  A    between atoms: _543  and  _544
REMARK  225  A    between atoms: _549  and  _550
REMARK                            x       y       z     vdW  Elec       q    Type
REMARK                         _______ _______ _______ _____ _____    ______ ____
ROOT
ATOM      1  CA  CYS A   8      39.752 -10.199  26.039  0.00  0.00    +0.160 C 
ENDROOT
BRANCH   1   2
ATOM      2  C   CYS A   8      39.660  -8.690  26.101  0.00  0.00    +0.242 C 
ATOM      3  N   ALA A   9      38.602  -8.176  26.709  0.00  0.00    -0.297 N 
ATOM      4  H   ALA A   9      37.879  -8.839  27.056  0.00  0.00    +0.150 HD
ATOM      5  O   CYS A   8      40.576  -8.009  25.619  0.00  0.00    -0.273 OA
BRANCH   3   6
ATOM      6  CA  ALA A   9      38.370  -6.744  26.932  0.00  0.00    +0.149 C 
ATOM      7  CB  ALA A   9      39.375  -6.195  27.952  0.00  0.00    +0.031 C 
BRANCH   6   8
ATOM      8  C   ALA A   9      38.387  -5.906  25.660  0.00  0.00    +0.241 C 
ATOM      9  O   ALA A   9      38.720  -4.719  25.710  0.00  0.00    -0.273 OA
ATOM     10  N   GLN A  10      38.003  -6.507  24.523  0.00  0.00    -0.298 N 
ATOM     11  H   GLN A  10      37.752  -7.516  24.520  0.00  0.00    +0.150 HD
BRANCH  10  12
ATOM     12  CA  GLN A  10      37.941  -5.721  23.283  0.00  0.00    +0.137 C 
BRANCH  12  13
ATOM     13  C   GLN A  10      36.651  -4.896  23.281  0.00  0.00    +0.227 C 
ATOM     14  O   GLN A  10      35.639  -5.300  23.851  0.00  0.00    -0.286 OA
ENDBRANCH  12  13
BRANCH  12  15
ATOM     15  CB  GLN A  10      37.925  -6.644  22.048  0.00  0.00    +0.037 C 
BRANCH  15  16
ATOM     16  CG  GLN A  10      39.121  -7.577  21.974  0.00  0.00    +0.087 C 
BRANCH  16  17
ATOM     17  CD  GLN A  10      39.310  -8.044  20.563  0.00  0.00    +0.219 C 
ATOM     18  NE2 GLN A  10      38.529  -9.019  20.158  0.00  0.00    -0.329 N 
ATOM     19 HE21 GLN A  10      37.903  -9.499  20.835  0.00  0.00    +0.145 HD
ATOM     20 HE22 GLN A  10      38.536  -9.311  19.160  0.00  0.00    +0.145 HD
ATOM     21  OE1 GLN A  10      40.065  -7.450  19.794  0.00  0.00    -0.275 OA
ENDBRANCH  16  17
ENDBRANCH  15  16
ENDBRANCH  12  15
ENDBRANCH  10  12
ENDBRANCH   6   8
ENDBRANCH   3   6
ENDBRANCH   1   2
BRANCH   1  22
ATOM     22  N   CYS A   8      39.900 -10.656  24.645  0.00  0.00    -0.296 N 
ATOM     23  C   GLY A   7      39.182 -11.671  24.123  0.00  0.00    +0.243 C 
ATOM     24  O   GLY A   7      38.327 -12.293  24.773  0.00  0.00    -0.273 OA
ATOM     25  H   CYS A   8      40.591 -10.173  24.036  0.00  0.00    +0.150 HD
BRANCH  23  26
ATOM     26  CA  GLY A   7      39.444 -12.045  22.666  0.00  0.00    +0.176 C 
BRANCH  26  27
ATOM     27  N   GLY A   7      38.283 -12.743  22.103  0.00  0.00    -0.295 N 
ATOM     28  C   GLU A   6      37.118 -12.147  21.885  0.00  0.00    +0.241 C 
ATOM     29  O   GLU A   6      36.910 -10.948  22.107  0.00  0.00    -0.273 OA
ATOM     30  H   GLY A   7      38.378 -13.751  21.864  0.00  0.00    +0.150 HD
BRANCH  28  31
ATOM     31  CA  GLU A   6      35.985 -13.045  21.364  0.00  0.00    +0.149 C 
BRANCH  31  32
ATOM     32  N   GLU A   6      35.065 -13.242  22.493  0.00  0.00    -0.297 N 
ATOM     33  C   GLY A   5      35.223 -14.301  23.296  0.00  0.00    +0.243 C 
ATOM     34  O   GLY A   5      36.085 -15.165  23.103  0.00  0.00    -0.273 OA
ATOM     35  H   GLU A   6      34.296 -12.563  22.667  0.00  0.00    +0.150 HD
BRANCH  33  36
ATOM     36  CA  GLY A   5      34.298 -14.413  24.490  0.00  0.00    +0.176 C 
BRANCH  36  37
ATOM     37  N   GLY A   5      34.427 -15.743  25.082  0.00  0.00    -0.295 N 
ATOM     38  C   TRP A   4      33.737 -16.107  26.148  0.00  0.00    +0.241 C 
ATOM     39  O   TRP A   4      32.987 -15.344  26.744  0.00  0.00    -0.273 OA
ATOM     40  H   GLY A   5      35.083 -16.425  24.650  0.00  0.00    +0.150 HD
BRANCH  38  41
ATOM     41  CA  TRP A   4      33.898 -17.576  26.594  0.00  0.00    +0.153 C 
BRANCH  41  42
ATOM     42  N   TRP A   4      33.156 -17.829  27.842  0.00  0.00    -0.297 N 
ATOM     43  C   SER A   3      33.516 -18.840  28.635  0.00  0.00    +0.243 C 
ATOM     44  O   SER A   3      34.495 -19.553  28.407  0.00  0.00    -0.273 OA
ATOM     45  H   TRP A   4      32.354 -17.221  28.104  0.00  0.00    +0.150 HD
BRANCH  43  46
ATOM     46  CA  SER A   3      32.705 -19.111  29.889  0.00  0.00    +0.178 C 
BRANCH  46  47
ATOM     47  N   SER A   3      32.820 -18.076  30.895  0.00  0.00    -0.295 N 
ATOM     48  C   THR A   2      33.231 -18.372  32.149  0.00  0.00    +0.243 C 
ATOM     49  O   THR A   2      33.683 -19.464  32.468  0.00  0.00    -0.273 OA
ATOM     50  H   SER A   3      32.584 -17.093  30.650  0.00  0.00    +0.150 HD
BRANCH  48  51
ATOM     51  CA  THR A   2      33.122 -17.281  33.201  0.00  0.00    +0.176 C 
BRANCH  51  52
ATOM     52  N   THR A   2      32.304 -17.745  34.344  0.00  0.00    -0.295 N 
ATOM     53  H   THR A   2      32.715 -17.740  35.299  0.00  0.00    +0.150 HD
ATOM     54  C   ILE A   1      31.046 -18.171  34.174  0.00  0.00    +0.238 C 
ATOM     55  O   ILE A   1      30.540 -18.298  33.056  0.00  0.00    -0.274 OA
BRANCH  54  56
ATOM     56  CA  ILE A   1      30.290 -18.634  35.421  0.00  0.00    +0.145 C 
BRANCH  56  57
ATOM     57  CB  ILE A   1      30.057 -20.165  35.380  0.00  0.00    +0.025 C 
ATOM     58  CG2 ILE A   1      31.415 -20.921  35.271  0.00  0.00    +0.002 C 
BRANCH  57  59
ATOM     59  CG1 ILE A   1      29.189 -20.663  36.577  0.00  0.00    +0.002 C 
ATOM     60  CD1 ILE A   1      28.578 -22.066  36.310  0.00  0.00    +0.000 C 
ENDBRANCH  57  59
ENDBRANCH  56  57
BRANCH  56  61
ATOM     61  N   ILE A   1      29.050 -17.866  35.424  0.00  0.00    -0.238 NA
ATOM     62  H   ILE A   1      28.392 -17.965  34.625  0.00  0.00    +0.142 HD
ENDBRANCH  56  61
ENDBRANCH  54  56
ENDBRANCH  51  52
BRANCH  51  63
ATOM     63  CB  THR A   2      34.468 -16.788  33.717  0.00  0.00    +0.137 C 
ATOM     64  CG2 THR A   2      35.342 -16.239  32.588  0.00  0.00    +0.034 C 
BRANCH  63  65
ATOM     65  OG1 THR A   2      34.204 -15.795  34.715  0.00  0.00    -0.382 OA
ATOM     66  HG1 THR A   2      35.061 -15.452  35.073  0.00  0.00    +0.210 HD
ENDBRANCH  63  65
ENDBRANCH  51  63
ENDBRANCH  48  51
ENDBRANCH  46  47
BRANCH  46  67
ATOM     67  CB  SER A   3      31.224 -19.375  29.580  0.00  0.00    +0.166 C 
BRANCH  67  68
ATOM     68  OG  SER A   3      31.031 -20.399  28.618  0.00  0.00    -0.380 OA
ATOM     69  H   SER A   3      31.423 -21.244  28.954  0.00  0.00    +0.211 HD
ENDBRANCH  67  68
ENDBRANCH  46  67
ENDBRANCH  43  46
ENDBRANCH  41  42
BRANCH  41  70
ATOM     70  CB  TRP A   4      33.419 -18.546  25.481  0.00  0.00    +0.057 C 
BRANCH  70  71
ATOM     71  CG  TRP A   4      31.976 -18.370  25.083  0.00  0.00    -0.002 A 
ATOM     72  CD1 TRP A   4      30.879 -18.846  25.737  0.00  0.00    +0.068 A 
ATOM     73  NE1 TRP A   4      29.730 -18.455  25.081  0.00  0.00    -0.352 N 
ATOM     74  HE1 TRP A   4      28.759 -18.682  25.377  0.00  0.00    +0.166 HD
ATOM     75  CE2 TRP A   4      30.074 -17.721  23.979  0.00  0.00    +0.056 A 
ATOM     76  CZ2 TRP A   4      29.266 -17.113  23.000  0.00  0.00    +0.017 A 
ATOM     77  CH2 TRP A   4      29.909 -16.445  21.974  0.00  0.00    +0.001 A 
ATOM     78  CZ3 TRP A   4      31.303 -16.293  21.958  0.00  0.00    +0.000 A 
ATOM     79  CE3 TRP A   4      32.104 -16.884  22.927  0.00  0.00    +0.001 A 
ATOM     80  CD2 TRP A   4      31.483 -17.625  23.962  0.00  0.00    +0.013 A 
ENDBRANCH  70  71
ENDBRANCH  41  70
ENDBRANCH  38  41
ENDBRANCH  36  37
ENDBRANCH  33  36
ENDBRANCH  31  32
BRANCH  31  81
ATOM     81  CB  GLU A   6      35.273 -12.411  20.153  0.00  0.00    +0.041 C 
BRANCH  81  82
ATOM     82  CG  GLU A   6      36.185 -12.246  18.938  0.00  0.00    +0.116 C 
BRANCH  82  83
ATOM     83  CD  GLU A   6      36.865 -13.526  18.474  0.00  0.00    +0.365 C 
ATOM     84  OE2 GLU A   6      38.113 -13.563  18.437  0.00  0.00    -0.246 OA
ATOM     85  OE1 GLU A   6      36.148 -14.511  18.203  0.00  0.00    -0.246 OA
ENDBRANCH  82  83
ENDBRANCH  81  82
ENDBRANCH  31  81
ENDBRANCH  28  31
ENDBRANCH  26  27
ENDBRANCH  23  26
ENDBRANCH   1  22
BRANCH   1  86
ATOM     86  CB  CYS A   8      40.903 -10.700  26.907  0.00  0.00    +0.098 C 
BRANCH  86  87
ATOM     87  SG  CYS A   8      41.190 -12.482  26.811  0.00  0.00    -0.080 S 
BRANCH  87  88
ATOM     88  SG  TRP A   4      42.667 -12.440  28.212  0.00  0.00    -0.080 S 
BRANCH  88  89
ATOM     89  CB  TRP A   4      41.964 -12.393  29.890  0.00  0.00    +0.098 C 
BRANCH  89  90
ATOM     90  CA  TRP A   4      40.814 -13.383  30.099  0.00  0.00    +0.160 C 
BRANCH  90  91
ATOM     91  C   TRP A   4      41.292 -14.817  30.340  0.00  0.00    +0.242 C 
ATOM     92  O   TRP A   4      40.751 -15.493  31.218  0.00  0.00    -0.273 OA
ATOM     93  N   GLY A   5      42.204 -15.335  29.511  0.00  0.00    -0.297 N 
ATOM     94  H   GLY A   5      42.606 -14.721  28.774  0.00  0.00    +0.150 HD
BRANCH  93  95
ATOM     95  CA  GLY A   5      42.670 -16.738  29.589  0.00  0.00    +0.149 C 
BRANCH  95  96
ATOM     96  C   GLY A   5      43.091 -17.161  31.002  0.00  0.00    +0.241 C 
ATOM     97  O   GLY A   5      43.919 -16.494  31.630  0.00  0.00    -0.273 OA
ATOM     98  N   GLU A   6      42.493 -18.242  31.495  0.00  0.00    -0.295 N 
ATOM     99  H   GLU A   6      41.814 -18.748  30.891  0.00  0.00    +0.150 HD
BRANCH  98 100
ATOM    100  CA  GLU A   6      42.741 -18.759  32.847  0.00  0.00    +0.176 C 
BRANCH 100 101
ATOM    101  C   GLU A   6      41.703 -18.313  33.870  0.00  0.00    +0.243 C 
ATOM    102  O   GLU A   6      41.709 -18.785  35.016  0.00  0.00    -0.273 OA
ATOM    103  N   GLY A   7      40.764 -17.445  33.465  0.00  0.00    -0.296 N 
ATOM    104  H   GLY A   7      40.785 -17.073  32.494  0.00  0.00    +0.150 HD
BRANCH 103 105
ATOM    105  CA  GLY A   7      39.700 -17.016  34.395  0.00  0.00    +0.160 C 
BRANCH 105 106
ATOM    106  C   GLY A   7      38.466 -17.898  34.279  0.00  0.00    +0.241 C 
ATOM    107  O   GLY A   7      37.599 -17.818  35.138  0.00  0.00    -0.273 OA
ATOM    108  N   CYS A   8      38.363 -18.695  33.196  0.00  0.00    -0.295 N 
ATOM    109  H   CYS A   8      39.146 -18.732  32.513  0.00  0.00    +0.150 HD
BRANCH 108 110
ATOM    110  CA  CYS A   8      37.164 -19.513  32.964  0.00  0.00    +0.178 C 
BRANCH 110 111
ATOM    111  C   CYS A   8      36.836 -20.424  34.123  0.00  0.00    +0.243 C 
ATOM    112  O   CYS A   8      37.731 -20.829  34.866  0.00  0.00    -0.273 OA
ATOM    113  N   ALA A   9      35.539 -20.634  34.334  0.00  0.00    -0.295 N 
ATOM    114  H   ALA A   9      34.848 -20.192  33.695  0.00  0.00    +0.150 HD
BRANCH 113 115
ATOM    115  CA  ALA A   9      35.055 -21.462  35.431  0.00  0.00    +0.176 C 
BRANCH 115 116
ATOM    116  C   ALA A   9      34.822 -20.676  36.708  0.00  0.00    +0.243 C 
ATOM    117  O   ALA A   9      34.066 -21.113  37.585  0.00  0.00    -0.273 OA
ATOM    118  N   GLN A  10      35.502 -19.534  36.831  0.00  0.00    -0.296 N 
ATOM    119  H   GLN A  10      36.134 -19.242  36.059  0.00  0.00    +0.150 HD
BRANCH 118 120
ATOM    120  CA  GLN A  10      35.391 -18.684  38.004  0.00  0.00    +0.163 C 
BRANCH 120 121
ATOM    121  C   GLN A  10      34.055 -17.956  38.064  0.00  0.00    +0.229 C 
ATOM    122  O   GLN A  10      33.291 -17.947  37.101  0.00  0.00    -0.286 OA
ENDBRANCH 120 121
ENDBRANCH 118 120
ENDBRANCH 115 116
ENDBRANCH 113 115
ENDBRANCH 110 111
BRANCH 110 123
ATOM    123  CB  CYS A   8      37.244 -20.274  31.648  0.00  0.00    +0.166 C 
BRANCH 123 124
ATOM    124  O   CYS A   8      38.076 -21.410  31.770  0.00  0.00    -0.380 OA
ATOM    125  H   CYS A   8      38.988 -21.124  32.028  0.00  0.00    +0.211 HD
ENDBRANCH 123 124
ENDBRANCH 110 123
ENDBRANCH 108 110
ENDBRANCH 105 106
BRANCH 105 126
ATOM    126  CB  GLY A   7      39.278 -15.564  34.128  0.00  0.00    +0.143 C 
BRANCH 126 127
ATOM    127  CG  GLY A   7      40.353 -14.595  34.589  0.00  0.00    +0.367 C 
ATOM    128  OD2 GLY A   7      40.902 -14.803  35.691  0.00  0.00    -0.246 OA
ATOM    129  OD1 GLY A   7      40.637 -13.634  33.849  0.00  0.00    -0.246 OA
ENDBRANCH 126 127
ENDBRANCH 105 126
ENDBRANCH 103 105
ENDBRANCH 100 101
ENDBRANCH  98 100
ENDBRANCH  95  96
BRANCH  95 130
ATOM    130  CB  GLY A   5      43.795 -16.978  28.582  0.00  0.00    +0.029 C 
BRANCH 130 131
ATOM    131  CG  GLY A   5      43.344 -16.695  27.153  0.00  0.00    +0.000 C 
BRANCH 131 132
ATOM    132  CD  GLY A   5      44.434 -17.092  26.186  0.00  0.00    -0.024 C 
BRANCH 132 133
ATOM    133  CE  GLY A   5      44.042 -16.773  24.762  0.00  0.00    -0.086 C 
BRANCH 133 134
ATOM    134  NZ  GLY A   5      44.908 -17.516  23.808  0.00  0.00    +0.380 N 
ATOM    135  HZ1 GLY A   5      44.802 -18.538  23.969  0.00  0.00    -0.089 HD
ATOM    136  HZ2 GLY A   5      45.900 -17.242  23.957  0.00  0.00    -0.089 HD
ATOM    137  HZ3 GLY A   5      44.626 -17.286  22.834  0.00  0.00    -0.089 HD
ENDBRANCH 133 134
ENDBRANCH 132 133
ENDBRANCH 131 132
ENDBRANCH 130 131
ENDBRANCH  95 130
ENDBRANCH  93  95
ENDBRANCH  90  91
BRANCH  90 139
ATOM    138  C   SER A   3      38.847 -12.216  30.921  0.00  0.00    +0.241 C 
ATOM    139  N   TRP A   4      39.902 -12.984  31.167  0.00  0.00    -0.296 N 
ATOM    140  H   TRP A   4      40.082 -13.307  32.139  0.00  0.00    +0.150 HD
ATOM    141  O   SER A   3      38.621 -11.721  29.803  0.00  0.00    -0.273 OA
BRANCH 138 142
ATOM    142  CA  SER A   3      37.900 -11.941  32.105  0.00  0.00    +0.149 C 
ATOM    143  CB  SER A   3      36.884 -13.086  32.214  0.00  0.00    +0.031 C 
BRANCH 142 146
ATOM    144  C   THR A   2      37.789  -9.517  31.864  0.00  0.00    +0.241 C 
ATOM    145  O   THR A   2      38.920  -9.345  32.322  0.00  0.00    -0.273 OA
ATOM    146  N   SER A   3      37.215 -10.715  31.774  0.00  0.00    -0.297 N 
ATOM    147  H   SER A   3      36.228 -10.770  31.450  0.00  0.00    +0.150 HD
BRANCH 144 148
ATOM    148  CA  THR A   2      37.013  -8.377  31.249  0.00  0.00    +0.160 C 
BRANCH 148 150
ATOM    149  C   ILE A   1      37.060  -5.937  31.360  0.00  0.00    +0.238 C 
ATOM    150  N   THR A   2      37.648  -7.097  31.640  0.00  0.00    -0.297 N 
ATOM    151  H   THR A   2      38.561  -7.105  32.138  0.00  0.00    +0.150 HD
ATOM    152  O   ILE A   1      35.967  -5.858  30.807  0.00  0.00    -0.274 OA
BRANCH 149 153
ATOM    153  CA  ILE A   1      37.813  -4.666  31.726  0.00  0.00    +0.145 C 
BRANCH 153 154
ATOM    154  N   ILE A   1      37.905  -3.810  30.519  0.00  0.00    -0.238 NA
ATOM    155  H   ILE A   1      37.051  -3.653  29.946  0.00  0.00    +0.142 HD
ENDBRANCH 153 154
BRANCH 153 156
ATOM    156  CB  ILE A   1      37.108  -3.951  32.895  0.00  0.00    +0.026 C 
BRANCH 156 157
ATOM    157  CG  ILE A   1      37.885  -2.769  33.461  0.00  0.00    -0.000 C 
BRANCH 157 158
ATOM    158  CD  ILE A   1      37.137  -2.164  34.641  0.00  0.00    -0.024 C 
BRANCH 158 159
ATOM    159  CE  ILE A   1      37.896  -1.031  35.294  0.00  0.00    -0.086 C 
BRANCH 159 160
ATOM    160  NZ  ILE A   1      37.119  -0.462  36.430  0.00  0.00    +0.380 N 
ATOM    161  HZ1 ILE A   1      36.948  -1.205  37.138  0.00  0.00    -0.089 HD
ATOM    162  HZ2 ILE A   1      37.659   0.314  36.863  0.00  0.00    -0.089 HD
ATOM    163  HZ3 ILE A   1      36.209  -0.100  36.079  0.00  0.00    -0.089 HD
ENDBRANCH 159 160
ENDBRANCH 158 159
ENDBRANCH 157 158
ENDBRANCH 156 157
ENDBRANCH 153 156
ENDBRANCH 149 153
ENDBRANCH 148 150
BRANCH 148 164
ATOM    164  CB  THR A   2      37.135  -8.517  29.698  0.00  0.00    +0.143 C 
BRANCH 164 165
ATOM    165  CG  THR A   2      36.292  -9.550  28.951  0.00  0.00    +0.367 C 
ATOM    166  OD2 THR A   2      35.413 -10.200  29.596  0.00  0.00    -0.246 OA
ATOM    167  OD1 THR A   2      36.458  -9.663  27.695  0.00  0.00    -0.246 OA
ENDBRANCH 164 165
ENDBRANCH 148 164
ENDBRANCH 144 148
ENDBRANCH 142 146
ENDBRANCH 138 142
ENDBRANCH  90 139
ENDBRANCH  89  90
ENDBRANCH  88  89
ENDBRANCH  87  88
ENDBRANCH  86  87
ENDBRANCH   1  86
TORSDOF 75
REMARK  Name = ../refined-set-2016/4ty6/4ty6_pocket.pdb
REMARK  225 active torsions:
REMARK  status: ('A' for Active; 'I' for Inactive)
REMARK    1  A    between atoms: _1  and  _5
REMARK    2  A    between atoms: _5  and  _6
REMARK    3  A    between atoms: _5  and  _8
REMARK    4  A    between atoms: _8  and  _9
REMARK    5  A    between atoms: _12  and  _14
REMARK    6  A    between atoms: _14  and  _15
REMARK    7  A    between atoms: _14  and  _17
REMARK    8  A    between atoms: _20  and  _22
REMARK    9  A    between atoms: _22  and  _23
REMARK   10  A    between atoms: _22  and  _25
REMARK   11  A    between atoms: _25  and  _26
REMARK   12  A    between atoms: _29  and  _31
REMARK   13  A    between atoms: _31  and  _32
REMARK   14  A    between atoms: _31  and  _34
REMARK   15  A    between atoms: _34  and  _35
REMARK   16  A    between atoms: _38  and  _40
REMARK   17  A    between atoms: _40  and  _41
REMARK   18  A    between atoms: _40  and  _43
REMARK   19  A    between atoms: _43  and  _44
REMARK   20  A    between atoms: _49  and  _51
REMARK   21  A    between atoms: _51  and  _52
REMARK   22  A    between atoms: _51  and  _54
REMARK   23  A    between atoms: _54  and  _55
REMARK   24  A    between atoms: _58  and  _60
REMARK   25  A    between atoms: _60  and  _61
REMARK   26  A    between atoms: _60  and  _63
REMARK   27  A    between atoms: _63  and  _64
REMARK   28  A    between atoms: _67  and  _69
REMARK   29  A    between atoms: _69  and  _70
REMARK   30  A    between atoms: _69  and  _72
REMARK   31  A    between atoms: _72  and  _73
REMARK   32  A    between atoms: _73  and  _74
REMARK   33  A    between atoms: _79  and  _81
REMARK   34  A    between atoms: _81  and  _82
REMARK   35  A    between atoms: _81  and  _84
REMARK   36  A    between atoms: _84  and  _85
REMARK   37  A    between atoms: _85  and  _86
REMARK   38  A    between atoms: _86  and  _87
REMARK   39  A    between atoms: _96  and  _98
REMARK   40  A    between atoms: _98  and  _99
REMARK   41  A    between atoms: _98  and  _101
REMARK   42  A    between atoms: _101  and  _102
REMARK   43  A    between atoms: _107  and  _109
REMARK   44  A    between atoms: _109  and  _110
REMARK   45  A    between atoms: _109  and  _112
REMARK   46  A    between atoms: _112  and  _113
REMARK   47  A    between atoms: _116  and  _118
REMARK   48  A    between atoms: _118  and  _119
REMARK   49  A    between atoms: _118  and  _121
REMARK   50  A    between atoms: _121  and  _122
REMARK   51  A    between atoms: _122  and  _157
REMARK   52  A    between atoms: _123  and  _125
REMARK   53  A    between atoms: _125  and  _126
REMARK   54  A    between atoms: _128  and  _130
REMARK   55  A    between atoms: _130  and  _131
REMARK   56  A    between atoms: _134  and  _136
REMARK   57  A    between atoms: _136  and  _137
REMARK   58  A    between atoms: _140  and  _142
REMARK   59  A    between atoms: _142  and  _143
REMARK   60  A    between atoms: _142  and  _145
REMARK   61  A    between atoms: _145  and  _146
REMARK   62  A    between atoms: _151  and  _153
REMARK   63  A    between atoms: _153  and  _154
REMARK   64  A    between atoms: _153  and  _156
REMARK   65  A    between atoms: _156  and  _157
REMARK   66  A    between atoms: _158  and  _160
REMARK   67  A    between atoms: _160  and  _161
REMARK   68  A    between atoms: _160  and  _163
REMARK   69  A    between atoms: _163  and  _164
REMARK   70  A    between atoms: _170  and  _172
REMARK   71  A    between atoms: _172  and  _173
REMARK   72  A    between atoms: _172  and  _175
REMARK   73  A    between atoms: _175  and  _176
REMARK   74  A    between atoms: _181  and  _182
REMARK   75  A    between atoms: _184  and  _186
REMARK   76  A    between atoms: _186  and  _187
REMARK   77  A    between atoms: _186  and  _189
REMARK   78  A    between atoms: _192  and  _194
REMARK   79  A    between atoms: _194  and  _195
REMARK   80  A    between atoms: _194  and  _197
REMARK   81  A    between atoms: _197  and  _198
REMARK   82  A    between atoms: _198  and  _199
REMARK   83  A    between atoms: _204  and  _206
REMARK   84  A    between atoms: _206  and  _207
REMARK   85  A    between atoms: _210  and  _212
REMARK   86  A    between atoms: _212  and  _213
REMARK   87  A    between atoms: _212  and  _215
REMARK   88  A    between atoms: _215  and  _216
REMARK   89  A    between atoms: _219  and  _221
REMARK   90  A    between atoms: _221  and  _222
REMARK   91  A    between atoms: _221  and  _224
REMARK   92  A    between atoms: _227  and  _229
REMARK   93  A    between atoms: _229  and  _230
REMARK   94  A    between atoms: _229  and  _232
REMARK   95  A    between atoms: _232  and  _233
REMARK   96  A    between atoms: _243  and  _245
REMARK   97  A    between atoms: _245  and  _246
REMARK   98  A    between atoms: _248  and  _250
REMARK   99  A    between atoms: _250  and  _251
REMARK  100  A    between atoms: _250  and  _253
REMARK  101  A    between atoms: _253  and  _254
REMARK  102  A    between atoms: _259  and  _260
REMARK  103  A    between atoms: _262  and  _264
REMARK  104  A    between atoms: _264  and  _265
REMARK  105  A    between atoms: _264  and  _267
REMARK  106  A    between atoms: _267  and  _268
REMARK  107  A    between atoms: _271  and  _273
REMARK  108  A    between atoms: _273  and  _274
REMARK  109  A    between atoms: _273  and  _276
REMARK  110  A    between atoms: _276  and  _277
REMARK  111  A    between atoms: _280  and  _282
REMARK  112  A    between atoms: _282  and  _283
REMARK  113  A    between atoms: _282  and  _285
REMARK  114  A    between atoms: _285  and  _286
REMARK  115  A    between atoms: _286  and  _287
REMARK  116  A    between atoms: _287  and  _288
REMARK  117  A    between atoms: _288  and  _289
REMARK  118  A    between atoms: _293  and  _295
REMARK  119  A    between atoms: _295  and  _296
REMARK  120  A    between atoms: _295  and  _298
REMARK  121  A    between atoms: _298  and  _299
REMARK  122  A    between atoms: _302  and  _304
REMARK  123  A    between atoms: _304  and  _305
REMARK  124  A    between atoms: _304  and  _307
REMARK  125  A    between atoms: _307  and  _308
REMARK  126  A    between atoms: _308  and  _309
REMARK  127  A    between atoms: _314  and  _316
REMARK  128  A    between atoms: _316  and  _317
REMARK  129  A    between atoms: _316  and  _319
REMARK  130  A    between atoms: _319  and  _320
REMARK  131  A    between atoms: _325  and  _326
REMARK  132  A    between atoms: _328  and  _330
REMARK  133  A    between atoms: _330  and  _331
REMARK  134  A    between atoms: _334  and  _336
REMARK  135  A    between atoms: _336  and  _337
REMARK  136  A    between atoms: _336  and  _339
REMARK  137  A    between atoms: _339  and  _340
REMARK  138  A    between atoms: _340  and  _341
REMARK  139  A    between atoms: _341  and  _342
REMARK  140  A    between atoms: _342  and  _343
REMARK  141  A    between atoms: _347  and  _349
REMARK  142  A    between atoms: _349  and  _350
REMARK  143  A    between atoms: _349  and  _352
REMARK  144  A    between atoms: _352  and  _353
REMARK  145  A    between atoms: _356  and  _358
REMARK  146  A    between atoms: _358  and  _359
REMARK  147  A    between atoms: _362  and  _364
REMARK  148  A    between atoms: _364  and  _365
REMARK  149  A    between atoms: _364  and  _367
REMARK  150  A    between atoms: _367  and  _368
REMARK  151  A    between atoms: _368  and  _482
REMARK  152  A    between atoms: _369  and  _371
REMARK  153  A    between atoms: _371  and  _372
REMARK  154  A    between atoms: _371  and  _374
REMARK  155  A    between atoms: _374  and  _375
REMARK  156  A    between atoms: _375  and  _376
REMARK  157  A    between atoms: _376  and  _377
REMARK  158  A    between atoms: _377  and  _378
REMARK  159  A    between atoms: _382  and  _384
REMARK  160  A    between atoms: _384  and  _385
REMARK  161  A    between atoms: _387  and  _389
REMARK  162  A    between atoms: _389  and  _390
REMARK  163  A    between atoms: _389  and  _392
REMARK  164  A    between atoms: _392  and  _393
REMARK  165  A    between atoms: _396  and  _398
REMARK  166  A    between atoms: _398  and  _399
REMARK  167  A    between atoms: _398  and  _401
REMARK  168  A    between atoms: _401  and  _402
REMARK  169  A    between atoms: _404  and  _406
REMARK  170  A    between atoms: _406  and  _407
REMARK  171  A    between atoms: _409  and  _411
REMARK  172  A    between atoms: _411  and  _412
REMARK  173  A    between atoms: _414  and  _416
REMARK  174  A    between atoms: _416  and  _417
REMARK  175  A    between atoms: _416  and  _419
REMARK  176  A    between atoms: _419  and  _420
REMARK  177  A    between atoms: _423  and  _425
REMARK  178  A    between atoms: _425  and  _426
REMARK  179  A    between atoms: _425  and  _428
REMARK  180  A    between atoms: _428  and  _429
REMARK  181  A    between atoms: _432  and  _434
REMARK  182  A    between atoms: _434  and  _435
REMARK  183  A    between atoms: _434  and  _437
REMARK  184  A    between atoms: _437  and  _438
REMARK  185  A    between atoms: _440  and  _442
REMARK  186  A    between atoms: _442  and  _443
REMARK  187  A    between atoms: _442  and  _445
REMARK  188  A    between atoms: _445  and  _446
REMARK  189  A    between atoms: _456  and  _458
REMARK  190  A    between atoms: _458  and  _459
REMARK  191  A    between atoms: _461  and  _463
REMARK  192  A    between atoms: _463  and  _464
REMARK  193  A    between atoms: _463  and  _466
REMARK  194  A    between atoms: _466  and  _467
REMARK  195  A    between atoms: _467  and  _468
REMARK  196  A    between atoms: _471  and  _473
REMARK  197  A    between atoms: _473  and  _474
REMARK  198  A    between atoms: _476  and  _478
REMARK  199  A    between atoms: _478  and  _479
REMARK  200  A    between atoms: _478  and  _481
REMARK  201  A    between atoms: _481  and  _482
REMARK  202  A    between atoms: _483  and  _485
REMARK  203  A    between atoms: _485  and  _486
REMARK  204  A    between atoms: _489  and  _491
REMARK  205  A    between atoms: _491  and  _492
REMARK  206  A    between atoms: _491  and  _494
REMARK  207  A    between atoms: _494  and  _495
REMARK  208  A    between atoms: _495  and  _496
REMARK  209  A    between atoms: _501  and  _503
REMARK  210  A    between atoms: _503  and  _504
REMARK  211  A    between atoms: _503  and  _506
REMARK  212  A    between atoms: _506  and  _507
REMARK  213  A    between atoms: _507  and  _508
REMARK  214  A    between atoms: _508  and  _509
REMARK  215  A    between atoms: _519  and  _520
REMARK  216  A    between atoms: _525  and  _527
REMARK  217  A    between atoms: _527  and  _528
REMARK  218  A    between atoms: _530  and  _532
REMARK  219  A    between atoms: _532  and  _533
REMARK  220  A    between atoms: _532  and  _535
REMARK  221  A    between atoms: _538  and  _540
REMARK  222  A    between atoms: _540  and  _541
REMARK  223  A    between atoms: _540  and  _543
REMARK  224  A    between atoms: _543  and  _544
REMARK  225  A    between atoms: _549  and  _550
REMARK                            x       y       z     vdW  Elec       q    Type
REMARK                         _______ _______ _______ _____ _____    ______ ____
ROOT
ATOM      1  C   PRO A   2      31.873  -9.976  26.460  0.00  0.00    +0.241 C 
ATOM      2  N   GLY A   3      32.264 -10.280  27.688  0.00  0.00    -0.295 N 
ATOM      3  H   GLY A   3      32.398  -9.509  28.373  0.00  0.00    +0.150 HD
ATOM      4  O   PRO A   2      31.756 -10.803  25.570  0.00  0.00    -0.273 OA
ENDROOT
BRANCH   1   8
ATOM      5  C   ARG A   1      32.848  -8.194  24.163  0.00  0.00    +0.241 C 
ATOM      6  O   ARG A   1      33.864  -8.440  24.796  0.00  0.00    -0.273 OA
ATOM      7  N   PRO A   2      31.653  -8.162  24.755  0.00  0.00    -0.272 N 
ATOM      8  CA  PRO A   2      31.560  -8.499  26.184  0.00  0.00    +0.152 C 
ATOM      9  CB  PRO A   2      30.114  -8.147  26.544  0.00  0.00    +0.031 C 
ATOM     10  CG  PRO A   2      29.361  -8.218  25.261  0.00  0.00    +0.024 C 
ATOM     11  CD  PRO A   2      30.317  -7.916  24.153  0.00  0.00    +0.094 C 
BRANCH   5  12
ATOM     12  CA  ARG A   1      32.944  -7.835  22.673  0.00  0.00    +0.145 C 
BRANCH  12  13
ATOM     13  N   ARG A   1      32.827  -6.370  22.558  0.00  0.00    -0.238 NA
ATOM     14  H   ARG A   1      33.368  -5.775  23.218  0.00  0.00    +0.142 HD
ENDBRANCH  12  13
BRANCH  12  15
ATOM     15  CB  ARG A   1      34.249  -8.368  22.065  0.00  0.00    +0.030 C 
BRANCH  15  16
ATOM     16  CG  ARG A   1      34.354  -8.237  20.544  0.00  0.00    +0.045 C 
BRANCH  16  17
ATOM     17  CD  ARG A   1      33.297  -9.015  19.773  0.00  0.00    +0.174 C 
BRANCH  17  18
ATOM     18  NE  ARG A   1      33.753  -9.259  18.398  0.00  0.00    -0.265 N 
ATOM     19  HE  ARG A   1      34.536  -8.678  18.036  0.00  0.00    +0.259 HD
ATOM     20  CZ  ARG A   1      33.233 -10.170  17.587  0.00  0.00    +0.342 C 
ATOM     21  NH2 ARG A   1      32.187 -10.890  17.971  0.00  0.00    -0.292 N 
ATOM     22 HH21 ARG A   1      31.771 -10.741  18.912  0.00  0.00    +0.255 HD
ATOM     23 HH22 ARG A   1      31.783 -11.603  17.331  0.00  0.00    +0.255 HD
ATOM     24  NH1 ARG A   1      33.746 -10.358  16.375  0.00  0.00    -0.292 N 
ATOM     25 HH11 ARG A   1      34.558  -9.790  16.060  0.00  0.00    +0.255 HD
ATOM     26 HH12 ARG A   1      33.335 -11.074  15.742  0.00  0.00    +0.255 HD
ENDBRANCH  17  18
ENDBRANCH  16  17
ENDBRANCH  15  16
ENDBRANCH  12  15
ENDBRANCH   5  12
ENDBRANCH   1   8
BRANCH   2  27
ATOM     27  CA  GLY A   3      32.515 -11.651  28.121  0.00  0.00    +0.176 C 
BRANCH  27  28
ATOM     28  C   GLY A   3      31.169 -12.347  28.181  0.00  0.00    +0.243 C 
ATOM     29  O   GLY A   3      30.159 -11.716  28.499  0.00  0.00    -0.273 OA
ATOM     30  N   VAL A   4      31.130 -13.642  27.866  0.00  0.00    -0.297 N 
ATOM     31  H   VAL A   4      32.013 -14.116  27.589  0.00  0.00    +0.150 HD
BRANCH  30  32
ATOM     32  CA  VAL A   4      29.883 -14.429  27.895  0.00  0.00    +0.149 C 
BRANCH  32  33
ATOM     33  C   VAL A   4      30.001 -15.400  29.057  0.00  0.00    +0.241 C 
ATOM     34  N   TYR A   5      28.942 -15.489  29.860  0.00  0.00    -0.298 N 
ATOM     35  H   TYR A   5      28.077 -14.970  29.607  0.00  0.00    +0.150 HD
ATOM     36  O   VAL A   4      31.055 -16.023  29.248  0.00  0.00    -0.273 OA
BRANCH  34  37
ATOM     37  CA  TYR A   5      28.950 -16.283  31.073  0.00  0.00    +0.141 C 
BRANCH  37  38
ATOM     38  C   TYR A   5      27.784 -17.241  31.093  0.00  0.00    +0.227 C 
ATOM     39  O   TYR A   5      26.746 -16.940  30.518  0.00  0.00    -0.286 OA
ENDBRANCH  37  38
BRANCH  37  40
ATOM     40  CB  TYR A   5      28.826 -15.335  32.294  0.00  0.00    +0.054 C 
BRANCH  40  41
ATOM     41  CG  TYR A   5      29.980 -14.358  32.446  0.00  0.00    -0.020 A 
ATOM     42  CD2 TYR A   5      30.983 -14.576  33.385  0.00  0.00    -0.001 A 
ATOM     43  CE2 TYR A   5      32.060 -13.694  33.516  0.00  0.00    +0.036 A 
ATOM     44  CZ  TYR A   5      32.118 -12.556  32.725  0.00  0.00    +0.134 A 
ATOM     45  CE1 TYR A   5      31.130 -12.320  31.786  0.00  0.00    +0.036 A 
ATOM     46  CD1 TYR A   5      30.057 -13.203  31.667  0.00  0.00    -0.001 A 
BRANCH  44  47
ATOM     47  OH  TYR A   5      33.173 -11.686  32.862  0.00  0.00    -0.506 OA
ATOM     48  HH  TYR A   5      33.062 -10.933  32.229  0.00  0.00    +0.292 HD
ENDBRANCH  44  47
ENDBRANCH  40  41
ENDBRANCH  37  40
ENDBRANCH  34  37
ENDBRANCH  32  33
BRANCH  32  49
ATOM     49  CB  VAL A   4      29.572 -15.152  26.560  0.00  0.00    +0.027 C 
ATOM     50  CG2 VAL A   4      28.194 -15.822  26.623  0.00  0.00    +0.002 C 
ATOM     51  CG1 VAL A   4      29.614 -14.163  25.382  0.00  0.00    +0.002 C 
ENDBRANCH  32  49
ENDBRANCH  30  32
ENDBRANCH  27  28
ENDBRANCH   2  27
TORSDOF 17
REMARK  Name = ../refined-set-2016/4ty6/4ty6_pocket.pdb
REMARK  225 active torsions:
REMARK  status: ('A' for Active; 'I' for Inactive)
REMARK    1  A    between atoms: _1  and  _5
REMARK    2  A    between atoms: _5  and  _6
REMARK    3  A    between atoms: _5  and  _8
REMARK    4  A    between atoms: _8  and  _9
REMARK    5  A    between atoms: _12  and  _14
REMARK    6  A    between atoms: _14  and  _15
REMARK    7  A    between atoms: _14  and  _17
REMARK    8  A    between atoms: _20  and  _22
REMARK    9  A    between atoms: _22  and  _23
REMARK   10  A    between atoms: _22  and  _25
REMARK   11  A    between atoms: _25  and  _26
REMARK   12  A    between atoms: _29  and  _31
REMARK   13  A    between atoms: _31  and  _32
REMARK   14  A    between atoms: _31  and  _34
REMARK   15  A    between atoms: _34  and  _35
REMARK   16  A    between atoms: _38  and  _40
REMARK   17  A    between atoms: _40  and  _41
REMARK   18  A    between atoms: _40  and  _43
REMARK   19  A    between atoms: _43  and  _44
REMARK   20  A    between atoms: _49  and  _51
REMARK   21  A    between atoms: _51  and  _52
REMARK   22  A    between atoms: _51  and  _54
REMARK   23  A    between atoms: _54  and  _55
REMARK   24  A    between atoms: _58  and  _60
REMARK   25  A    between atoms: _60  and  _61
REMARK   26  A    between atoms: _60  and  _63
REMARK   27  A    between atoms: _63  and  _64
REMARK   28  A    between atoms: _67  and  _69
REMARK   29  A    between atoms: _69  and  _70
REMARK   30  A    between atoms: _69  and  _72
REMARK   31  A    between atoms: _72  and  _73
REMARK   32  A    between atoms: _73  and  _74
REMARK   33  A    between atoms: _79  and  _81
REMARK   34  A    between atoms: _81  and  _82
REMARK   35  A    between atoms: _81  and  _84
REMARK   36  A    between atoms: _84  and  _85
REMARK   37  A    between atoms: _85  and  _86
REMARK   38  A    between atoms: _86  and  _87
REMARK   39  A    between atoms: _96  and  _98
REMARK   40  A    between atoms: _98  and  _99
REMARK   41  A    between atoms: _98  and  _101
REMARK   42  A    between atoms: _101  and  _102
REMARK   43  A    between atoms: _107  and  _109
REMARK   44  A    between atoms: _109  and  _110
REMARK   45  A    between atoms: _109  and  _112
REMARK   46  A    between atoms: _112  and  _113
REMARK   47  A    between atoms: _116  and  _118
REMARK   48  A    between atoms: _118  and  _119
REMARK   49  A    between atoms: _118  and  _121
REMARK   50  A    between atoms: _121  and  _122
REMARK   51  A    between atoms: _122  and  _157
REMARK   52  A    between atoms: _123  and  _125
REMARK   53  A    between atoms: _125  and  _126
REMARK   54  A    between atoms: _128  and  _130
REMARK   55  A    between atoms: _130  and  _131
REMARK   56  A    between atoms: _134  and  _136
REMARK   57  A    between atoms: _136  and  _137
REMARK   58  A    between atoms: _140  and  _142
REMARK   59  A    between atoms: _142  and  _143
REMARK   60  A    between atoms: _142  and  _145
REMARK   61  A    between atoms: _145  and  _146
REMARK   62  A    between atoms: _151  and  _153
REMARK   63  A    between atoms: _153  and  _154
REMARK   64  A    between atoms: _153  and  _156
REMARK   65  A    between atoms: _156  and  _157
REMARK   66  A    between atoms: _158  and  _160
REMARK   67  A    between atoms: _160  and  _161
REMARK   68  A    between atoms: _160  and  _163
REMARK   69  A    between atoms: _163  and  _164
REMARK   70  A    between atoms: _170  and  _172
REMARK   71  A    between atoms: _172  and  _173
REMARK   72  A    between atoms: _172  and  _175
REMARK   73  A    between atoms: _175  and  _176
REMARK   74  A    between atoms: _181  and  _182
REMARK   75  A    between atoms: _184  and  _186
REMARK   76  A    between atoms: _186  and  _187
REMARK   77  A    between atoms: _186  and  _189
REMARK   78  A    between atoms: _192  and  _194
REMARK   79  A    between atoms: _194  and  _195
REMARK   80  A    between atoms: _194  and  _197
REMARK   81  A    between atoms: _197  and  _198
REMARK   82  A    between atoms: _198  and  _199
REMARK   83  A    between atoms: _204  and  _206
REMARK   84  A    between atoms: _206  and  _207
REMARK   85  A    between atoms: _210  and  _212
REMARK   86  A    between atoms: _212  and  _213
REMARK   87  A    between atoms: _212  and  _215
REMARK   88  A    between atoms: _215  and  _216
REMARK   89  A    between atoms: _219  and  _221
REMARK   90  A    between atoms: _221  and  _222
REMARK   91  A    between atoms: _221  and  _224
REMARK   92  A    between atoms: _227  and  _229
REMARK   93  A    between atoms: _229  and  _230
REMARK   94  A    between atoms: _229  and  _232
REMARK   95  A    between atoms: _232  and  _233
REMARK   96  A    between atoms: _243  and  _245
REMARK   97  A    between atoms: _245  and  _246
REMARK   98  A    between atoms: _248  and  _250
REMARK   99  A    between atoms: _250  and  _251
REMARK  100  A    between atoms: _250  and  _253
REMARK  101  A    between atoms: _253  and  _254
REMARK  102  A    between atoms: _259  and  _260
REMARK  103  A    between atoms: _262  and  _264
REMARK  104  A    between atoms: _264  and  _265
REMARK  105  A    between atoms: _264  and  _267
REMARK  106  A    between atoms: _267  and  _268
REMARK  107  A    between atoms: _271  and  _273
REMARK  108  A    between atoms: _273  and  _274
REMARK  109  A    between atoms: _273  and  _276
REMARK  110  A    between atoms: _276  and  _277
REMARK  111  A    between atoms: _280  and  _282
REMARK  112  A    between atoms: _282  and  _283
REMARK  113  A    between atoms: _282  and  _285
REMARK  114  A    between atoms: _285  and  _286
REMARK  115  A    between atoms: _286  and  _287
REMARK  116  A    between atoms: _287  and  _288
REMARK  117  A    between atoms: _288  and  _289
REMARK  118  A    between atoms: _293  and  _295
REMARK  119  A    between atoms: _295  and  _296
REMARK  120  A    between atoms: _295  and  _298
REMARK  121  A    between atoms: _298  and  _299
REMARK  122  A    between atoms: _302  and  _304
REMARK  123  A    between atoms: _304  and  _305
REMARK  124  A    between atoms: _304  and  _307
REMARK  125  A    between atoms: _307  and  _308
REMARK  126  A    between atoms: _308  and  _309
REMARK  127  A    between atoms: _314  and  _316
REMARK  128  A    between atoms: _316  and  _317
REMARK  129  A    between atoms: _316  and  _319
REMARK  130  A    between atoms: _319  and  _320
REMARK  131  A    between atoms: _325  and  _326
REMARK  132  A    between atoms: _328  and  _330
REMARK  133  A    between atoms: _330  and  _331
REMARK  134  A    between atoms: _334  and  _336
REMARK  135  A    between atoms: _336  and  _337
REMARK  136  A    between atoms: _336  and  _339
REMARK  137  A    between atoms: _339  and  _340
REMARK  138  A    between atoms: _340  and  _341
REMARK  139  A    between atoms: _341  and  _342
REMARK  140  A    between atoms: _342  and  _343
REMARK  141  A    between atoms: _347  and  _349
REMARK  142  A    between atoms: _349  and  _350
REMARK  143  A    between atoms: _349  and  _352
REMARK  144  A    between atoms: _352  and  _353
REMARK  145  A    between atoms: _356  and  _358
REMARK  146  A    between atoms: _358  and  _359
REMARK  147  A    between atoms: _362  and  _364
REMARK  148  A    between atoms: _364  and  _365
REMARK  149  A    between atoms: _364  and  _367
REMARK  150  A    between atoms: _367  and  _368
REMARK  151  A    between atoms: _368  and  _482
REMARK  152  A    between atoms: _369  and  _371
REMARK  153  A    between atoms: _371  and  _372
REMARK  154  A    between atoms: _371  and  _374
REMARK  155  A    between atoms: _374  and  _375
REMARK  156  A    between atoms: _375  and  _376
REMARK  157  A    between atoms: _376  and  _377
REMARK  158  A    between atoms: _377  and  _378
REMARK  159  A    between atoms: _382  and  _384
REMARK  160  A    between atoms: _384  and  _385
REMARK  161  A    between atoms: _387  and  _389
REMARK  162  A    between atoms: _389  and  _390
REMARK  163  A    between atoms: _389  and  _392
REMARK  164  A    between atoms: _392  and  _393
REMARK  165  A    between atoms: _396  and  _398
REMARK  166  A    between atoms: _398  and  _399
REMARK  167  A    between atoms: _398  and  _401
REMARK  168  A    between atoms: _401  and  _402
REMARK  169  A    between atoms: _404  and  _406
REMARK  170  A    between atoms: _406  and  _407
REMARK  171  A    between atoms: _409  and  _411
REMARK  172  A    between atoms: _411  and  _412
REMARK  173  A    between atoms: _414  and  _416
REMARK  174  A    between atoms: _416  and  _417
REMARK  175  A    between atoms: _416  and  _419
REMARK  176  A    between atoms: _419  and  _420
REMARK  177  A    between atoms: _423  and  _425
REMARK  178  A    between atoms: _425  and  _426
REMARK  179  A    between atoms: _425  and  _428
REMARK  180  A    between atoms: _428  and  _429
REMARK  181  A    between atoms: _432  and  _434
REMARK  182  A    between atoms: _434  and  _435
REMARK  183  A    between atoms: _434  and  _437
REMARK  184  A    between atoms: _437  and  _438
REMARK  185  A    between atoms: _440  and  _442
REMARK  186  A    between atoms: _442  and  _443
REMARK  187  A    between atoms: _442  and  _445
REMARK  188  A    between atoms: _445  and  _446
REMARK  189  A    between atoms: _456  and  _458
REMARK  190  A    between atoms: _458  and  _459
REMARK  191  A    between atoms: _461  and  _463
REMARK  192  A    between atoms: _463  and  _464
REMARK  193  A    between atoms: _463  and  _466
REMARK  194  A    between atoms: _466  and  _467
REMARK  195  A    between atoms: _467  and  _468
REMARK  196  A    between atoms: _471  and  _473
REMARK  197  A    between atoms: _473  and  _474
REMARK  198  A    between atoms: _476  and  _478
REMARK  199  A    between atoms: _478  and  _479
REMARK  200  A    between atoms: _478  and  _481
REMARK  201  A    between atoms: _481  and  _482
REMARK  202  A    between atoms: _483  and  _485
REMARK  203  A    between atoms: _485  and  _486
REMARK  204  A    between atoms: _489  and  _491
REMARK  205  A    between atoms: _491  and  _492
REMARK  206  A    between atoms: _491  and  _494
REMARK  207  A    between atoms: _494  and  _495
REMARK  208  A    between atoms: _495  and  _496
REMARK  209  A    between atoms: _501  and  _503
REMARK  210  A    between atoms: _503  and  _504
REMARK  211  A    between atoms: _503  and  _506
REMARK  212  A    between atoms: _506  and  _507
REMARK  213  A    between atoms: _507  and  _508
REMARK  214  A    between atoms: _508  and  _509
REMARK  215  A    between atoms: _519  and  _520
REMARK  216  A    between atoms: _525  and  _527
REMARK  217  A    between atoms: _527  and  _528
REMARK  218  A    between atoms: _530  and  _532
REMARK  219  A    between atoms: _532  and  _533
REMARK  220  A    between atoms: _532  and  _535
REMARK  221  A    between atoms: _538  and  _540
REMARK  222  A    between atoms: _540  and  _541
REMARK  223  A    between atoms: _540  and  _543
REMARK  224  A    between atoms: _543  and  _544
REMARK  225  A    between atoms: _549  and  _550
REMARK                            x       y       z     vdW  Elec       q    Type
REMARK                         _______ _______ _______ _____ _____    ______ ____
ROOT
ATOM      1  O   HOH     1      38.250 -26.364  26.573  0.00  0.00    +0.000 OA
ENDROOT
TORSDOF 0
REMARK  Name = ../refined-set-2016/4ty6/4ty6_pocket.pdb
REMARK  225 active torsions:
REMARK  status: ('A' for Active; 'I' for Inactive)
REMARK    1  A    between atoms: _1  and  _5
REMARK    2  A    between atoms: _5  and  _6
REMARK    3  A    between atoms: _5  and  _8
REMARK    4  A    between atoms: _8  and  _9
REMARK    5  A    between atoms: _12  and  _14
REMARK    6  A    between atoms: _14  and  _15
REMARK    7  A    between atoms: _14  and  _17
REMARK    8  A    between atoms: _20  and  _22
REMARK    9  A    between atoms: _22  and  _23
REMARK   10  A    between atoms: _22  and  _25
REMARK   11  A    between atoms: _25  and  _26
REMARK   12  A    between atoms: _29  and  _31
REMARK   13  A    between atoms: _31  and  _32
REMARK   14  A    between atoms: _31  and  _34
REMARK   15  A    between atoms: _34  and  _35
REMARK   16  A    between atoms: _38  and  _40
REMARK   17  A    between atoms: _40  and  _41
REMARK   18  A    between atoms: _40  and  _43
REMARK   19  A    between atoms: _43  and  _44
REMARK   20  A    between atoms: _49  and  _51
REMARK   21  A    between atoms: _51  and  _52
REMARK   22  A    between atoms: _51  and  _54
REMARK   23  A    between atoms: _54  and  _55
REMARK   24  A    between atoms: _58  and  _60
REMARK   25  A    between atoms: _60  and  _61
REMARK   26  A    between atoms: _60  and  _63
REMARK   27  A    between atoms: _63  and  _64
REMARK   28  A    between atoms: _67  and  _69
REMARK   29  A    between atoms: _69  and  _70
REMARK   30  A    between atoms: _69  and  _72
REMARK   31  A    between atoms: _72  and  _73
REMARK   32  A    between atoms: _73  and  _74
REMARK   33  A    between atoms: _79  and  _81
REMARK   34  A    between atoms: _81  and  _82
REMARK   35  A    between atoms: _81  and  _84
REMARK   36  A    between atoms: _84  and  _85
REMARK   37  A    between atoms: _85  and  _86
REMARK   38  A    between atoms: _86  and  _87
REMARK   39  A    between atoms: _96  and  _98
REMARK   40  A    between atoms: _98  and  _99
REMARK   41  A    between atoms: _98  and  _101
REMARK   42  A    between atoms: _101  and  _102
REMARK   43  A    between atoms: _107  and  _109
REMARK   44  A    between atoms: _109  and  _110
REMARK   45  A    between atoms: _109  and  _112
REMARK   46  A    between atoms: _112  and  _113
REMARK   47  A    between atoms: _116  and  _118
REMARK   48  A    between atoms: _118  and  _119
REMARK   49  A    between atoms: _118  and  _121
REMARK   50  A    between atoms: _121  and  _122
REMARK   51  A    between atoms: _122  and  _157
REMARK   52  A    between atoms: _123  and  _125
REMARK   53  A    between atoms: _125  and  _126
REMARK   54  A    between atoms: _128  and  _130
REMARK   55  A    between atoms: _130  and  _131
REMARK   56  A    between atoms: _134  and  _136
REMARK   57  A    between atoms: _136  and  _137
REMARK   58  A    between atoms: _140  and  _142
REMARK   59  A    between atoms: _142  and  _143
REMARK   60  A    between atoms: _142  and  _145
REMARK   61  A    between atoms: _145  and  _146
REMARK   62  A    between atoms: _151  and  _153
REMARK   63  A    between atoms: _153  and  _154
REMARK   64  A    between atoms: _153  and  _156
REMARK   65  A    between atoms: _156  and  _157
REMARK   66  A    between atoms: _158  and  _160
REMARK   67  A    between atoms: _160  and  _161
REMARK   68  A    between atoms: _160  and  _163
REMARK   69  A    between atoms: _163  and  _164
REMARK   70  A    between atoms: _170  and  _172
REMARK   71  A    between atoms: _172  and  _173
REMARK   72  A    between atoms: _172  and  _175
REMARK   73  A    between atoms: _175  and  _176
REMARK   74  A    between atoms: _181  and  _182
REMARK   75  A    between atoms: _184  and  _186
REMARK   76  A    between atoms: _186  and  _187
REMARK   77  A    between atoms: _186  and  _189
REMARK   78  A    between atoms: _192  and  _194
REMARK   79  A    between atoms: _194  and  _195
REMARK   80  A    between atoms: _194  and  _197
REMARK   81  A    between atoms: _197  and  _198
REMARK   82  A    between atoms: _198  and  _199
REMARK   83  A    between atoms: _204  and  _206
REMARK   84  A    between atoms: _206  and  _207
REMARK   85  A    between atoms: _210  and  _212
REMARK   86  A    between atoms: _212  and  _213
REMARK   87  A    between atoms: _212  and  _215
REMARK   88  A    between atoms: _215  and  _216
REMARK   89  A    between atoms: _219  and  _221
REMARK   90  A    between atoms: _221  and  _222
REMARK   91  A    between atoms: _221  and  _224
REMARK   92  A    between atoms: _227  and  _229
REMARK   93  A    between atoms: _229  and  _230
REMARK   94  A    between atoms: _229  and  _232
REMARK   95  A    between atoms: _232  and  _233
REMARK   96  A    between atoms: _243  and  _245
REMARK   97  A    between atoms: _245  and  _246
REMARK   98  A    between atoms: _248  and  _250
REMARK   99  A    between atoms: _250  and  _251
REMARK  100  A    between atoms: _250  and  _253
REMARK  101  A    between atoms: _253  and  _254
REMARK  102  A    between atoms: _259  and  _260
REMARK  103  A    between atoms: _262  and  _264
REMARK  104  A    between atoms: _264  and  _265
REMARK  105  A    between atoms: _264  and  _267
REMARK  106  A    between atoms: _267  and  _268
REMARK  107  A    between atoms: _271  and  _273
REMARK  108  A    between atoms: _273  and  _274
REMARK  109  A    between atoms: _273  and  _276
REMARK  110  A    between atoms: _276  and  _277
REMARK  111  A    between atoms: _280  and  _282
REMARK  112  A    between atoms: _282  and  _283
REMARK  113  A    between atoms: _282  and  _285
REMARK  114  A    between atoms: _285  and  _286
REMARK  115  A    between atoms: _286  and  _287
REMARK  116  A    between atoms: _287  and  _288
REMARK  117  A    between atoms: _288  and  _289
REMARK  118  A    between atoms: _293  and  _295
REMARK  119  A    between atoms: _295  and  _296
REMARK  120  A    between atoms: _295  and  _298
REMARK  121  A    between atoms: _298  and  _299
REMARK  122  A    between atoms: _302  and  _304
REMARK  123  A    between atoms: _304  and  _305
REMARK  124  A    between atoms: _304  and  _307
REMARK  125  A    between atoms: _307  and  _308
REMARK  126  A    between atoms: _308  and  _309
REMARK  127  A    between atoms: _314  and  _316
REMARK  128  A    between atoms: _316  and  _317
REMARK  129  A    between atoms: _316  and  _319
REMARK  130  A    between atoms: _319  and  _320
REMARK  131  A    between atoms: _325  and  _326
REMARK  132  A    between atoms: _328  and  _330
REMARK  133  A    between atoms: _330  and  _331
REMARK  134  A    between atoms: _334  and  _336
REMARK  135  A    between atoms: _336  and  _337
REMARK  136  A    between atoms: _336  and  _339
REMARK  137  A    between atoms: _339  and  _340
REMARK  138  A    between atoms: _340  and  _341
REMARK  139  A    between atoms: _341  and  _342
REMARK  140  A    between atoms: _342  and  _343
REMARK  141  A    between atoms: _347  and  _349
REMARK  142  A    between atoms: _349  and  _350
REMARK  143  A    between atoms: _349  and  _352
REMARK  144  A    between atoms: _352  and  _353
REMARK  145  A    between atoms: _356  and  _358
REMARK  146  A    between atoms: _358  and  _359
REMARK  147  A    between atoms: _362  and  _364
REMARK  148  A    between atoms: _364  and  _365
REMARK  149  A    between atoms: _364  and  _367
REMARK  150  A    between atoms: _367  and  _368
REMARK  151  A    between atoms: _368  and  _482
REMARK  152  A    between atoms: _369  and  _371
REMARK  153  A    between atoms: _371  and  _372
REMARK  154  A    between atoms: _371  and  _374
REMARK  155  A    between atoms: _374  and  _375
REMARK  156  A    between atoms: _375  and  _376
REMARK  157  A    between atoms: _376  and  _377
REMARK  158  A    between atoms: _377  and  _378
REMARK  159  A    between atoms: _382  and  _384
REMARK  160  A    between atoms: _384  and  _385
REMARK  161  A    between atoms: _387  and  _389
REMARK  162  A    between atoms: _389  and  _390
REMARK  163  A    between atoms: _389  and  _392
REMARK  164  A    between atoms: _392  and  _393
REMARK  165  A    between atoms: _396  and  _398
REMARK  166  A    between atoms: _398  and  _399
REMARK  167  A    between atoms: _398  and  _401
REMARK  168  A    between atoms: _401  and  _402
REMARK  169  A    between atoms: _404  and  _406
REMARK  170  A    between atoms: _406  and  _407
REMARK  171  A    between atoms: _409  and  _411
REMARK  172  A    between atoms: _411  and  _412
REMARK  173  A    between atoms: _414  and  _416
REMARK  174  A    between atoms: _416  and  _417
REMARK  175  A    between atoms: _416  and  _419
REMARK  176  A    between atoms: _419  and  _420
REMARK  177  A    between atoms: _423  and  _425
REMARK  178  A    between atoms: _425  and  _426
REMARK  179  A    between atoms: _425  and  _428
REMARK  180  A    between atoms: _428  and  _429
REMARK  181  A    between atoms: _432  and  _434
REMARK  182  A    between atoms: _434  and  _435
REMARK  183  A    between atoms: _434  and  _437
REMARK  184  A    between atoms: _437  and  _438
REMARK  185  A    between atoms: _440  and  _442
REMARK  186  A    between atoms: _442  and  _443
REMARK  187  A    between atoms: _442  and  _445
REMARK  188  A    between atoms: _445  and  _446
REMARK  189  A    between atoms: _456  and  _458
REMARK  190  A    between atoms: _458  and  _459
REMARK  191  A    between atoms: _461  and  _463
REMARK  192  A    between atoms: _463  and  _464
REMARK  193  A    between atoms: _463  and  _466
REMARK  194  A    between atoms: _466  and  _467
REMARK  195  A    between atoms: _467  and  _468
REMARK  196  A    between atoms: _471  and  _473
REMARK  197  A    between atoms: _473  and  _474
REMARK  198  A    between atoms: _476  and  _478
REMARK  199  A    between atoms: _478  and  _479
REMARK  200  A    between atoms: _478  and  _481
REMARK  201  A    between atoms: _481  and  _482
REMARK  202  A    between atoms: _483  and  _485
REMARK  203  A    between atoms: _485  and  _486
REMARK  204  A    between atoms: _489  and  _491
REMARK  205  A    between atoms: _491  and  _492
REMARK  206  A    between atoms: _491  and  _494
REMARK  207  A    between atoms: _494  and  _495
REMARK  208  A    between atoms: _495  and  _496
REMARK  209  A    between atoms: _501  and  _503
REMARK  210  A    between atoms: _503  and  _504
REMARK  211  A    between atoms: _503  and  _506
REMARK  212  A    between atoms: _506  and  _507
REMARK  213  A    between atoms: _507  and  _508
REMARK  214  A    between atoms: _508  and  _509
REMARK  215  A    between atoms: _519  and  _520
REMARK  216  A    between atoms: _525  and  _527
REMARK  217  A    between atoms: _527  and  _528
REMARK  218  A    between atoms: _530  and  _532
REMARK  219  A    between atoms: _532  and  _533
REMARK  220  A    between atoms: _532  and  _535
REMARK  221  A    between atoms: _538  and  _540
REMARK  222  A    between atoms: _540  and  _541
REMARK  223  A    between atoms: _540  and  _543
REMARK  224  A    between atoms: _543  and  _544
REMARK  225  A    between atoms: _549  and  _550
REMARK                            x       y       z     vdW  Elec       q    Type
REMARK                         _______ _______ _______ _____ _____    ______ ____
ROOT
ATOM      1  O   HOH     1      39.155 -15.234  20.988  0.00  0.00    +0.000 OA
ENDROOT
TORSDOF 0
REMARK  Name = ../refined-set-2016/4ty6/4ty6_pocket.pdb
REMARK  225 active torsions:
REMARK  status: ('A' for Active; 'I' for Inactive)
REMARK    1  A    between atoms: _1  and  _5
REMARK    2  A    between atoms: _5  and  _6
REMARK    3  A    between atoms: _5  and  _8
REMARK    4  A    between atoms: _8  and  _9
REMARK    5  A    between atoms: _12  and  _14
REMARK    6  A    between atoms: _14  and  _15
REMARK    7  A    between atoms: _14  and  _17
REMARK    8  A    between atoms: _20  and  _22
REMARK    9  A    between atoms: _22  and  _23
REMARK   10  A    between atoms: _22  and  _25
REMARK   11  A    between atoms: _25  and  _26
REMARK   12  A    between atoms: _29  and  _31
REMARK   13  A    between atoms: _31  and  _32
REMARK   14  A    between atoms: _31  and  _34
REMARK   15  A    between atoms: _34  and  _35
REMARK   16  A    between atoms: _38  and  _40
REMARK   17  A    between atoms: _40  and  _41
REMARK   18  A    between atoms: _40  and  _43
REMARK   19  A    between atoms: _43  and  _44
REMARK   20  A    between atoms: _49  and  _51
REMARK   21  A    between atoms: _51  and  _52
REMARK   22  A    between atoms: _51  and  _54
REMARK   23  A    between atoms: _54  and  _55
REMARK   24  A    between atoms: _58  and  _60
REMARK   25  A    between atoms: _60  and  _61
REMARK   26  A    between atoms: _60  and  _63
REMARK   27  A    between atoms: _63  and  _64
REMARK   28  A    between atoms: _67  and  _69
REMARK   29  A    between atoms: _69  and  _70
REMARK   30  A    between atoms: _69  and  _72
REMARK   31  A    between atoms: _72  and  _73
REMARK   32  A    between atoms: _73  and  _74
REMARK   33  A    between atoms: _79  and  _81
REMARK   34  A    between atoms: _81  and  _82
REMARK   35  A    between atoms: _81  and  _84
REMARK   36  A    between atoms: _84  and  _85
REMARK   37  A    between atoms: _85  and  _86
REMARK   38  A    between atoms: _86  and  _87
REMARK   39  A    between atoms: _96  and  _98
REMARK   40  A    between atoms: _98  and  _99
REMARK   41  A    between atoms: _98  and  _101
REMARK   42  A    between atoms: _101  and  _102
REMARK   43  A    between atoms: _107  and  _109
REMARK   44  A    between atoms: _109  and  _110
REMARK   45  A    between atoms: _109  and  _112
REMARK   46  A    between atoms: _112  and  _113
REMARK   47  A    between atoms: _116  and  _118
REMARK   48  A    between atoms: _118  and  _119
REMARK   49  A    between atoms: _118  and  _121
REMARK   50  A    between atoms: _121  and  _122
REMARK   51  A    between atoms: _122  and  _157
REMARK   52  A    between atoms: _123  and  _125
REMARK   53  A    between atoms: _125  and  _126
REMARK   54  A    between atoms: _128  and  _130
REMARK   55  A    between atoms: _130  and  _131
REMARK   56  A    between atoms: _134  and  _136
REMARK   57  A    between atoms: _136  and  _137
REMARK   58  A    between atoms: _140  and  _142
REMARK   59  A    between atoms: _142  and  _143
REMARK   60  A    between atoms: _142  and  _145
REMARK   61  A    between atoms: _145  and  _146
REMARK   62  A    between atoms: _151  and  _153
REMARK   63  A    between atoms: _153  and  _154
REMARK   64  A    between atoms: _153  and  _156
REMARK   65  A    between atoms: _156  and  _157
REMARK   66  A    between atoms: _158  and  _160
REMARK   67  A    between atoms: _160  and  _161
REMARK   68  A    between atoms: _160  and  _163
REMARK   69  A    between atoms: _163  and  _164
REMARK   70  A    between atoms: _170  and  _172
REMARK   71  A    between atoms: _172  and  _173
REMARK   72  A    between atoms: _172  and  _175
REMARK   73  A    between atoms: _175  and  _176
REMARK   74  A    between atoms: _181  and  _182
REMARK   75  A    between atoms: _184  and  _186
REMARK   76  A    between atoms: _186  and  _187
REMARK   77  A    between atoms: _186  and  _189
REMARK   78  A    between atoms: _192  and  _194
REMARK   79  A    between atoms: _194  and  _195
REMARK   80  A    between atoms: _194  and  _197
REMARK   81  A    between atoms: _197  and  _198
REMARK   82  A    between atoms: _198  and  _199
REMARK   83  A    between atoms: _204  and  _206
REMARK   84  A    between atoms: _206  and  _207
REMARK   85  A    between atoms: _210  and  _212
REMARK   86  A    between atoms: _212  and  _213
REMARK   87  A    between atoms: _212  and  _215
REMARK   88  A    between atoms: _215  and  _216
REMARK   89  A    between atoms: _219  and  _221
REMARK   90  A    between atoms: _221  and  _222
REMARK   91  A    between atoms: _221  and  _224
REMARK   92  A    between atoms: _227  and  _229
REMARK   93  A    between atoms: _229  and  _230
REMARK   94  A    between atoms: _229  and  _232
REMARK   95  A    between atoms: _232  and  _233
REMARK   96  A    between atoms: _243  and  _245
REMARK   97  A    between atoms: _245  and  _246
REMARK   98  A    between atoms: _248  and  _250
REMARK   99  A    between atoms: _250  and  _251
REMARK  100  A    between atoms: _250  and  _253
REMARK  101  A    between atoms: _253  and  _254
REMARK  102  A    between atoms: _259  and  _260
REMARK  103  A    between atoms: _262  and  _264
REMARK  104  A    between atoms: _264  and  _265
REMARK  105  A    between atoms: _264  and  _267
REMARK  106  A    between atoms: _267  and  _268
REMARK  107  A    between atoms: _271  and  _273
REMARK  108  A    between atoms: _273  and  _274
REMARK  109  A    between atoms: _273  and  _276
REMARK  110  A    between atoms: _276  and  _277
REMARK  111  A    between atoms: _280  and  _282
REMARK  112  A    between atoms: _282  and  _283
REMARK  113  A    between atoms: _282  and  _285
REMARK  114  A    between atoms: _285  and  _286
REMARK  115  A    between atoms: _286  and  _287
REMARK  116  A    between atoms: _287  and  _288
REMARK  117  A    between atoms: _288  and  _289
REMARK  118  A    between atoms: _293  and  _295
REMARK  119  A    between atoms: _295  and  _296
REMARK  120  A    between atoms: _295  and  _298
REMARK  121  A    between atoms: _298  and  _299
REMARK  122  A    between atoms: _302  and  _304
REMARK  123  A    between atoms: _304  and  _305
REMARK  124  A    between atoms: _304  and  _307
REMARK  125  A    between atoms: _307  and  _308
REMARK  126  A    between atoms: _308  and  _309
REMARK  127  A    between atoms: _314  and  _316
REMARK  128  A    between atoms: _316  and  _317
REMARK  129  A    between atoms: _316  and  _319
REMARK  130  A    between atoms: _319  and  _320
REMARK  131  A    between atoms: _325  and  _326
REMARK  132  A    between atoms: _328  and  _330
REMARK  133  A    between atoms: _330  and  _331
REMARK  134  A    between atoms: _334  and  _336
REMARK  135  A    between atoms: _336  and  _337
REMARK  136  A    between atoms: _336  and  _339
REMARK  137  A    between atoms: _339  and  _340
REMARK  138  A    between atoms: _340  and  _341
REMARK  139  A    between atoms: _341  and  _342
REMARK  140  A    between atoms: _342  and  _343
REMARK  141  A    between atoms: _347  and  _349
REMARK  142  A    between atoms: _349  and  _350
REMARK  143  A    between atoms: _349  and  _352
REMARK  144  A    between atoms: _352  and  _353
REMARK  145  A    between atoms: _356  and  _358
REMARK  146  A    between atoms: _358  and  _359
REMARK  147  A    between atoms: _362  and  _364
REMARK  148  A    between atoms: _364  and  _365
REMARK  149  A    between atoms: _364  and  _367
REMARK  150  A    between atoms: _367  and  _368
REMARK  151  A    between atoms: _368  and  _482
REMARK  152  A    between atoms: _369  and  _371
REMARK  153  A    between atoms: _371  and  _372
REMARK  154  A    between atoms: _371  and  _374
REMARK  155  A    between atoms: _374  and  _375
REMARK  156  A    between atoms: _375  and  _376
REMARK  157  A    between atoms: _376  and  _377
REMARK  158  A    between atoms: _377  and  _378
REMARK  159  A    between atoms: _382  and  _384
REMARK  160  A    between atoms: _384  and  _385
REMARK  161  A    between atoms: _387  and  _389
REMARK  162  A    between atoms: _389  and  _390
REMARK  163  A    between atoms: _389  and  _392
REMARK  164  A    between atoms: _392  and  _393
REMARK  165  A    between atoms: _396  and  _398
REMARK  166  A    between atoms: _398  and  _399
REMARK  167  A    between atoms: _398  and  _401
REMARK  168  A    between atoms: _401  and  _402
REMARK  169  A    between atoms: _404  and  _406
REMARK  170  A    between atoms: _406  and  _407
REMARK  171  A    between atoms: _409  and  _411
REMARK  172  A    between atoms: _411  and  _412
REMARK  173  A    between atoms: _414  and  _416
REMARK  174  A    between atoms: _416  and  _417
REMARK  175  A    between atoms: _416  and  _419
REMARK  176  A    between atoms: _419  and  _420
REMARK  177  A    between atoms: _423  and  _425
REMARK  178  A    between atoms: _425  and  _426
REMARK  179  A    between atoms: _425  and  _428
REMARK  180  A    between atoms: _428  and  _429
REMARK  181  A    between atoms: _432  and  _434
REMARK  182  A    between atoms: _434  and  _435
REMARK  183  A    between atoms: _434  and  _437
REMARK  184  A    between atoms: _437  and  _438
REMARK  185  A    between atoms: _440  and  _442
REMARK  186  A    between atoms: _442  and  _443
REMARK  187  A    between atoms: _442  and  _445
REMARK  188  A    between atoms: _445  and  _446
REMARK  189  A    between atoms: _456  and  _458
REMARK  190  A    between atoms: _458  and  _459
REMARK  191  A    between atoms: _461  and  _463
REMARK  192  A    between atoms: _463  and  _464
REMARK  193  A    between atoms: _463  and  _466
REMARK  194  A    between atoms: _466  and  _467
REMARK  195  A    between atoms: _467  and  _468
REMARK  196  A    between atoms: _471  and  _473
REMARK  197  A    between atoms: _473  and  _474
REMARK  198  A    between atoms: _476  and  _478
REMARK  199  A    between atoms: _478  and  _479
REMARK  200  A    between atoms: _478  and  _481
REMARK  201  A    between atoms: _481  and  _482
REMARK  202  A    between atoms: _483  and  _485
REMARK  203  A    between atoms: _485  and  _486
REMARK  204  A    between atoms: _489  and  _491
REMARK  205  A    between atoms: _491  and  _492
REMARK  206  A    between atoms: _491  and  _494
REMARK  207  A    between atoms: _494  and  _495
REMARK  208  A    between atoms: _495  and  _496
REMARK  209  A    between atoms: _501  and  _503
REMARK  210  A    between atoms: _503  and  _504
REMARK  211  A    between atoms: _503  and  _506
REMARK  212  A    between atoms: _506  and  _507
REMARK  213  A    between atoms: _507  and  _508
REMARK  214  A    between atoms: _508  and  _509
REMARK  215  A    between atoms: _519  and  _520
REMARK  216  A    between atoms: _525  and  _527
REMARK  217  A    between atoms: _527  and  _528
REMARK  218  A    between atoms: _530  and  _532
REMARK  219  A    between atoms: _532  and  _533
REMARK  220  A    between atoms: _532  and  _535
REMARK  221  A    between atoms: _538  and  _540
REMARK  222  A    between atoms: _540  and  _541
REMARK  223  A    between atoms: _540  and  _543
REMARK  224  A    between atoms: _543  and  _544
REMARK  225  A    between atoms: _549  and  _550
REMARK                            x       y       z     vdW  Elec       q    Type
REMARK                         _______ _______ _______ _____ _____    ______ ____
ROOT
ATOM      1  O   HOH     1      34.575 -25.171  24.192  0.00  0.00    +0.000 OA
ENDROOT
TORSDOF 0
REMARK  Name = ../refined-set-2016/4ty6/4ty6_pocket.pdb
REMARK  225 active torsions:
REMARK  status: ('A' for Active; 'I' for Inactive)
REMARK    1  A    between atoms: _1  and  _5
REMARK    2  A    between atoms: _5  and  _6
REMARK    3  A    between atoms: _5  and  _8
REMARK    4  A    between atoms: _8  and  _9
REMARK    5  A    between atoms: _12  and  _14
REMARK    6  A    between atoms: _14  and  _15
REMARK    7  A    between atoms: _14  and  _17
REMARK    8  A    between atoms: _20  and  _22
REMARK    9  A    between atoms: _22  and  _23
REMARK   10  A    between atoms: _22  and  _25
REMARK   11  A    between atoms: _25  and  _26
REMARK   12  A    between atoms: _29  and  _31
REMARK   13  A    between atoms: _31  and  _32
REMARK   14  A    between atoms: _31  and  _34
REMARK   15  A    between atoms: _34  and  _35
REMARK   16  A    between atoms: _38  and  _40
REMARK   17  A    between atoms: _40  and  _41
REMARK   18  A    between atoms: _40  and  _43
REMARK   19  A    between atoms: _43  and  _44
REMARK   20  A    between atoms: _49  and  _51
REMARK   21  A    between atoms: _51  and  _52
REMARK   22  A    between atoms: _51  and  _54
REMARK   23  A    between atoms: _54  and  _55
REMARK   24  A    between atoms: _58  and  _60
REMARK   25  A    between atoms: _60  and  _61
REMARK   26  A    between atoms: _60  and  _63
REMARK   27  A    between atoms: _63  and  _64
REMARK   28  A    between atoms: _67  and  _69
REMARK   29  A    between atoms: _69  and  _70
REMARK   30  A    between atoms: _69  and  _72
REMARK   31  A    between atoms: _72  and  _73
REMARK   32  A    between atoms: _73  and  _74
REMARK   33  A    between atoms: _79  and  _81
REMARK   34  A    between atoms: _81  and  _82
REMARK   35  A    between atoms: _81  and  _84
REMARK   36  A    between atoms: _84  and  _85
REMARK   37  A    between atoms: _85  and  _86
REMARK   38  A    between atoms: _86  and  _87
REMARK   39  A    between atoms: _96  and  _98
REMARK   40  A    between atoms: _98  and  _99
REMARK   41  A    between atoms: _98  and  _101
REMARK   42  A    between atoms: _101  and  _102
REMARK   43  A    between atoms: _107  and  _109
REMARK   44  A    between atoms: _109  and  _110
REMARK   45  A    between atoms: _109  and  _112
REMARK   46  A    between atoms: _112  and  _113
REMARK   47  A    between atoms: _116  and  _118
REMARK   48  A    between atoms: _118  and  _119
REMARK   49  A    between atoms: _118  and  _121
REMARK   50  A    between atoms: _121  and  _122
REMARK   51  A    between atoms: _122  and  _157
REMARK   52  A    between atoms: _123  and  _125
REMARK   53  A    between atoms: _125  and  _126
REMARK   54  A    between atoms: _128  and  _130
REMARK   55  A    between atoms: _130  and  _131
REMARK   56  A    between atoms: _134  and  _136
REMARK   57  A    between atoms: _136  and  _137
REMARK   58  A    between atoms: _140  and  _142
REMARK   59  A    between atoms: _142  and  _143
REMARK   60  A    between atoms: _142  and  _145
REMARK   61  A    between atoms: _145  and  _146
REMARK   62  A    between atoms: _151  and  _153
REMARK   63  A    between atoms: _153  and  _154
REMARK   64  A    between atoms: _153  and  _156
REMARK   65  A    between atoms: _156  and  _157
REMARK   66  A    between atoms: _158  and  _160
REMARK   67  A    between atoms: _160  and  _161
REMARK   68  A    between atoms: _160  and  _163
REMARK   69  A    between atoms: _163  and  _164
REMARK   70  A    between atoms: _170  and  _172
REMARK   71  A    between atoms: _172  and  _173
REMARK   72  A    between atoms: _172  and  _175
REMARK   73  A    between atoms: _175  and  _176
REMARK   74  A    between atoms: _181  and  _182
REMARK   75  A    between atoms: _184  and  _186
REMARK   76  A    between atoms: _186  and  _187
REMARK   77  A    between atoms: _186  and  _189
REMARK   78  A    between atoms: _192  and  _194
REMARK   79  A    between atoms: _194  and  _195
REMARK   80  A    between atoms: _194  and  _197
REMARK   81  A    between atoms: _197  and  _198
REMARK   82  A    between atoms: _198  and  _199
REMARK   83  A    between atoms: _204  and  _206
REMARK   84  A    between atoms: _206  and  _207
REMARK   85  A    between atoms: _210  and  _212
REMARK   86  A    between atoms: _212  and  _213
REMARK   87  A    between atoms: _212  and  _215
REMARK   88  A    between atoms: _215  and  _216
REMARK   89  A    between atoms: _219  and  _221
REMARK   90  A    between atoms: _221  and  _222
REMARK   91  A    between atoms: _221  and  _224
REMARK   92  A    between atoms: _227  and  _229
REMARK   93  A    between atoms: _229  and  _230
REMARK   94  A    between atoms: _229  and  _232
REMARK   95  A    between atoms: _232  and  _233
REMARK   96  A    between atoms: _243  and  _245
REMARK   97  A    between atoms: _245  and  _246
REMARK   98  A    between atoms: _248  and  _250
REMARK   99  A    between atoms: _250  and  _251
REMARK  100  A    between atoms: _250  and  _253
REMARK  101  A    between atoms: _253  and  _254
REMARK  102  A    between atoms: _259  and  _260
REMARK  103  A    between atoms: _262  and  _264
REMARK  104  A    between atoms: _264  and  _265
REMARK  105  A    between atoms: _264  and  _267
REMARK  106  A    between atoms: _267  and  _268
REMARK  107  A    between atoms: _271  and  _273
REMARK  108  A    between atoms: _273  and  _274
REMARK  109  A    between atoms: _273  and  _276
REMARK  110  A    between atoms: _276  and  _277
REMARK  111  A    between atoms: _280  and  _282
REMARK  112  A    between atoms: _282  and  _283
REMARK  113  A    between atoms: _282  and  _285
REMARK  114  A    between atoms: _285  and  _286
REMARK  115  A    between atoms: _286  and  _287
REMARK  116  A    between atoms: _287  and  _288
REMARK  117  A    between atoms: _288  and  _289
REMARK  118  A    between atoms: _293  and  _295
REMARK  119  A    between atoms: _295  and  _296
REMARK  120  A    between atoms: _295  and  _298
REMARK  121  A    between atoms: _298  and  _299
REMARK  122  A    between atoms: _302  and  _304
REMARK  123  A    between atoms: _304  and  _305
REMARK  124  A    between atoms: _304  and  _307
REMARK  125  A    between atoms: _307  and  _308
REMARK  126  A    between atoms: _308  and  _309
REMARK  127  A    between atoms: _314  and  _316
REMARK  128  A    between atoms: _316  and  _317
REMARK  129  A    between atoms: _316  and  _319
REMARK  130  A    between atoms: _319  and  _320
REMARK  131  A    between atoms: _325  and  _326
REMARK  132  A    between atoms: _328  and  _330
REMARK  133  A    between atoms: _330  and  _331
REMARK  134  A    between atoms: _334  and  _336
REMARK  135  A    between atoms: _336  and  _337
REMARK  136  A    between atoms: _336  and  _339
REMARK  137  A    between atoms: _339  and  _340
REMARK  138  A    between atoms: _340  and  _341
REMARK  139  A    between atoms: _341  and  _342
REMARK  140  A    between atoms: _342  and  _343
REMARK  141  A    between atoms: _347  and  _349
REMARK  142  A    between atoms: _349  and  _350
REMARK  143  A    between atoms: _349  and  _352
REMARK  144  A    between atoms: _352  and  _353
REMARK  145  A    between atoms: _356  and  _358
REMARK  146  A    between atoms: _358  and  _359
REMARK  147  A    between atoms: _362  and  _364
REMARK  148  A    between atoms: _364  and  _365
REMARK  149  A    between atoms: _364  and  _367
REMARK  150  A    between atoms: _367  and  _368
REMARK  151  A    between atoms: _368  and  _482
REMARK  152  A    between atoms: _369  and  _371
REMARK  153  A    between atoms: _371  and  _372
REMARK  154  A    between atoms: _371  and  _374
REMARK  155  A    between atoms: _374  and  _375
REMARK  156  A    between atoms: _375  and  _376
REMARK  157  A    between atoms: _376  and  _377
REMARK  158  A    between atoms: _377  and  _378
REMARK  159  A    between atoms: _382  and  _384
REMARK  160  A    between atoms: _384  and  _385
REMARK  161  A    between atoms: _387  and  _389
REMARK  162  A    between atoms: _389  and  _390
REMARK  163  A    between atoms: _389  and  _392
REMARK  164  A    between atoms: _392  and  _393
REMARK  165  A    between atoms: _396  and  _398
REMARK  166  A    between atoms: _398  and  _399
REMARK  167  A    between atoms: _398  and  _401
REMARK  168  A    between atoms: _401  and  _402
REMARK  169  A    between atoms: _404  and  _406
REMARK  170  A    between atoms: _406  and  _407
REMARK  171  A    between atoms: _409  and  _411
REMARK  172  A    between atoms: _411  and  _412
REMARK  173  A    between atoms: _414  and  _416
REMARK  174  A    between atoms: _416  and  _417
REMARK  175  A    between atoms: _416  and  _419
REMARK  176  A    between atoms: _419  and  _420
REMARK  177  A    between atoms: _423  and  _425
REMARK  178  A    between atoms: _425  and  _426
REMARK  179  A    between atoms: _425  and  _428
REMARK  180  A    between atoms: _428  and  _429
REMARK  181  A    between atoms: _432  and  _434
REMARK  182  A    between atoms: _434  and  _435
REMARK  183  A    between atoms: _434  and  _437
REMARK  184  A    between atoms: _437  and  _438
REMARK  185  A    between atoms: _440  and  _442
REMARK  186  A    between atoms: _442  and  _443
REMARK  187  A    between atoms: _442  and  _445
REMARK  188  A    between atoms: _445  and  _446
REMARK  189  A    between atoms: _456  and  _458
REMARK  190  A    between atoms: _458  and  _459
REMARK  191  A    between atoms: _461  and  _463
REMARK  192  A    between atoms: _463  and  _464
REMARK  193  A    between atoms: _463  and  _466
REMARK  194  A    between atoms: _466  and  _467
REMARK  195  A    between atoms: _467  and  _468
REMARK  196  A    between atoms: _471  and  _473
REMARK  197  A    between atoms: _473  and  _474
REMARK  198  A    between atoms: _476  and  _478
REMARK  199  A    between atoms: _478  and  _479
REMARK  200  A    between atoms: _478  and  _481
REMARK  201  A    between atoms: _481  and  _482
REMARK  202  A    between atoms: _483  and  _485
REMARK  203  A    between atoms: _485  and  _486
REMARK  204  A    between atoms: _489  and  _491
REMARK  205  A    between atoms: _491  and  _492
REMARK  206  A    between atoms: _491  and  _494
REMARK  207  A    between atoms: _494  and  _495
REMARK  208  A    between atoms: _495  and  _496
REMARK  209  A    between atoms: _501  and  _503
REMARK  210  A    between atoms: _503  and  _504
REMARK  211  A    between atoms: _503  and  _506
REMARK  212  A    between atoms: _506  and  _507
REMARK  213  A    between atoms: _507  and  _508
REMARK  214  A    between atoms: _508  and  _509
REMARK  215  A    between atoms: _519  and  _520
REMARK  216  A    between atoms: _525  and  _527
REMARK  217  A    between atoms: _527  and  _528
REMARK  218  A    between atoms: _530  and  _532
REMARK  219  A    between atoms: _532  and  _533
REMARK  220  A    between atoms: _532  and  _535
REMARK  221  A    between atoms: _538  and  _540
REMARK  222  A    between atoms: _540  and  _541
REMARK  223  A    between atoms: _540  and  _543
REMARK  224  A    between atoms: _543  and  _544
REMARK  225  A    between atoms: _549  and  _550
REMARK                            x       y       z     vdW  Elec       q    Type
REMARK                         _______ _______ _______ _____ _____    ______ ____
ROOT
ATOM      1  O   HOH     1      42.367 -28.430  27.575  0.00  0.00    +0.000 OA
ENDROOT
TORSDOF 0
REMARK  Name = ../refined-set-2016/4ty6/4ty6_pocket.pdb
REMARK  225 active torsions:
REMARK  status: ('A' for Active; 'I' for Inactive)
REMARK    1  A    between atoms: _1  and  _5
REMARK    2  A    between atoms: _5  and  _6
REMARK    3  A    between atoms: _5  and  _8
REMARK    4  A    between atoms: _8  and  _9
REMARK    5  A    between atoms: _12  and  _14
REMARK    6  A    between atoms: _14  and  _15
REMARK    7  A    between atoms: _14  and  _17
REMARK    8  A    between atoms: _20  and  _22
REMARK    9  A    between atoms: _22  and  _23
REMARK   10  A    between atoms: _22  and  _25
REMARK   11  A    between atoms: _25  and  _26
REMARK   12  A    between atoms: _29  and  _31
REMARK   13  A    between atoms: _31  and  _32
REMARK   14  A    between atoms: _31  and  _34
REMARK   15  A    between atoms: _34  and  _35
REMARK   16  A    between atoms: _38  and  _40
REMARK   17  A    between atoms: _40  and  _41
REMARK   18  A    between atoms: _40  and  _43
REMARK   19  A    between atoms: _43  and  _44
REMARK   20  A    between atoms: _49  and  _51
REMARK   21  A    between atoms: _51  and  _52
REMARK   22  A    between atoms: _51  and  _54
REMARK   23  A    between atoms: _54  and  _55
REMARK   24  A    between atoms: _58  and  _60
REMARK   25  A    between atoms: _60  and  _61
REMARK   26  A    between atoms: _60  and  _63
REMARK   27  A    between atoms: _63  and  _64
REMARK   28  A    between atoms: _67  and  _69
REMARK   29  A    between atoms: _69  and  _70
REMARK   30  A    between atoms: _69  and  _72
REMARK   31  A    between atoms: _72  and  _73
REMARK   32  A    between atoms: _73  and  _74
REMARK   33  A    between atoms: _79  and  _81
REMARK   34  A    between atoms: _81  and  _82
REMARK   35  A    between atoms: _81  and  _84
REMARK   36  A    between atoms: _84  and  _85
REMARK   37  A    between atoms: _85  and  _86
REMARK   38  A    between atoms: _86  and  _87
REMARK   39  A    between atoms: _96  and  _98
REMARK   40  A    between atoms: _98  and  _99
REMARK   41  A    between atoms: _98  and  _101
REMARK   42  A    between atoms: _101  and  _102
REMARK   43  A    between atoms: _107  and  _109
REMARK   44  A    between atoms: _109  and  _110
REMARK   45  A    between atoms: _109  and  _112
REMARK   46  A    between atoms: _112  and  _113
REMARK   47  A    between atoms: _116  and  _118
REMARK   48  A    between atoms: _118  and  _119
REMARK   49  A    between atoms: _118  and  _121
REMARK   50  A    between atoms: _121  and  _122
REMARK   51  A    between atoms: _122  and  _157
REMARK   52  A    between atoms: _123  and  _125
REMARK   53  A    between atoms: _125  and  _126
REMARK   54  A    between atoms: _128  and  _130
REMARK   55  A    between atoms: _130  and  _131
REMARK   56  A    between atoms: _134  and  _136
REMARK   57  A    between atoms: _136  and  _137
REMARK   58  A    between atoms: _140  and  _142
REMARK   59  A    between atoms: _142  and  _143
REMARK   60  A    between atoms: _142  and  _145
REMARK   61  A    between atoms: _145  and  _146
REMARK   62  A    between atoms: _151  and  _153
REMARK   63  A    between atoms: _153  and  _154
REMARK   64  A    between atoms: _153  and  _156
REMARK   65  A    between atoms: _156  and  _157
REMARK   66  A    between atoms: _158  and  _160
REMARK   67  A    between atoms: _160  and  _161
REMARK   68  A    between atoms: _160  and  _163
REMARK   69  A    between atoms: _163  and  _164
REMARK   70  A    between atoms: _170  and  _172
REMARK   71  A    between atoms: _172  and  _173
REMARK   72  A    between atoms: _172  and  _175
REMARK   73  A    between atoms: _175  and  _176
REMARK   74  A    between atoms: _181  and  _182
REMARK   75  A    between atoms: _184  and  _186
REMARK   76  A    between atoms: _186  and  _187
REMARK   77  A    between atoms: _186  and  _189
REMARK   78  A    between atoms: _192  and  _194
REMARK   79  A    between atoms: _194  and  _195
REMARK   80  A    between atoms: _194  and  _197
REMARK   81  A    between atoms: _197  and  _198
REMARK   82  A    between atoms: _198  and  _199
REMARK   83  A    between atoms: _204  and  _206
REMARK   84  A    between atoms: _206  and  _207
REMARK   85  A    between atoms: _210  and  _212
REMARK   86  A    between atoms: _212  and  _213
REMARK   87  A    between atoms: _212  and  _215
REMARK   88  A    between atoms: _215  and  _216
REMARK   89  A    between atoms: _219  and  _221
REMARK   90  A    between atoms: _221  and  _222
REMARK   91  A    between atoms: _221  and  _224
REMARK   92  A    between atoms: _227  and  _229
REMARK   93  A    between atoms: _229  and  _230
REMARK   94  A    between atoms: _229  and  _232
REMARK   95  A    between atoms: _232  and  _233
REMARK   96  A    between atoms: _243  and  _245
REMARK   97  A    between atoms: _245  and  _246
REMARK   98  A    between atoms: _248  and  _250
REMARK   99  A    between atoms: _250  and  _251
REMARK  100  A    between atoms: _250  and  _253
REMARK  101  A    between atoms: _253  and  _254
REMARK  102  A    between atoms: _259  and  _260
REMARK  103  A    between atoms: _262  and  _264
REMARK  104  A    between atoms: _264  and  _265
REMARK  105  A    between atoms: _264  and  _267
REMARK  106  A    between atoms: _267  and  _268
REMARK  107  A    between atoms: _271  and  _273
REMARK  108  A    between atoms: _273  and  _274
REMARK  109  A    between atoms: _273  and  _276
REMARK  110  A    between atoms: _276  and  _277
REMARK  111  A    between atoms: _280  and  _282
REMARK  112  A    between atoms: _282  and  _283
REMARK  113  A    between atoms: _282  and  _285
REMARK  114  A    between atoms: _285  and  _286
REMARK  115  A    between atoms: _286  and  _287
REMARK  116  A    between atoms: _287  and  _288
REMARK  117  A    between atoms: _288  and  _289
REMARK  118  A    between atoms: _293  and  _295
REMARK  119  A    between atoms: _295  and  _296
REMARK  120  A    between atoms: _295  and  _298
REMARK  121  A    between atoms: _298  and  _299
REMARK  122  A    between atoms: _302  and  _304
REMARK  123  A    between atoms: _304  and  _305
REMARK  124  A    between atoms: _304  and  _307
REMARK  125  A    between atoms: _307  and  _308
REMARK  126  A    between atoms: _308  and  _309
REMARK  127  A    between atoms: _314  and  _316
REMARK  128  A    between atoms: _316  and  _317
REMARK  129  A    between atoms: _316  and  _319
REMARK  130  A    between atoms: _319  and  _320
REMARK  131  A    between atoms: _325  and  _326
REMARK  132  A    between atoms: _328  and  _330
REMARK  133  A    between atoms: _330  and  _331
REMARK  134  A    between atoms: _334  and  _336
REMARK  135  A    between atoms: _336  and  _337
REMARK  136  A    between atoms: _336  and  _339
REMARK  137  A    between atoms: _339  and  _340
REMARK  138  A    between atoms: _340  and  _341
REMARK  139  A    between atoms: _341  and  _342
REMARK  140  A    between atoms: _342  and  _343
REMARK  141  A    between atoms: _347  and  _349
REMARK  142  A    between atoms: _349  and  _350
REMARK  143  A    between atoms: _349  and  _352
REMARK  144  A    between atoms: _352  and  _353
REMARK  145  A    between atoms: _356  and  _358
REMARK  146  A    between atoms: _358  and  _359
REMARK  147  A    between atoms: _362  and  _364
REMARK  148  A    between atoms: _364  and  _365
REMARK  149  A    between atoms: _364  and  _367
REMARK  150  A    between atoms: _367  and  _368
REMARK  151  A    between atoms: _368  and  _482
REMARK  152  A    between atoms: _369  and  _371
REMARK  153  A    between atoms: _371  and  _372
REMARK  154  A    between atoms: _371  and  _374
REMARK  155  A    between atoms: _374  and  _375
REMARK  156  A    between atoms: _375  and  _376
REMARK  157  A    between atoms: _376  and  _377
REMARK  158  A    between atoms: _377  and  _378
REMARK  159  A    between atoms: _382  and  _384
REMARK  160  A    between atoms: _384  and  _385
REMARK  161  A    between atoms: _387  and  _389
REMARK  162  A    between atoms: _389  and  _390
REMARK  163  A    between atoms: _389  and  _392
REMARK  164  A    between atoms: _392  and  _393
REMARK  165  A    between atoms: _396  and  _398
REMARK  166  A    between atoms: _398  and  _399
REMARK  167  A    between atoms: _398  and  _401
REMARK  168  A    between atoms: _401  and  _402
REMARK  169  A    between atoms: _404  and  _406
REMARK  170  A    between atoms: _406  and  _407
REMARK  171  A    between atoms: _409  and  _411
REMARK  172  A    between atoms: _411  and  _412
REMARK  173  A    between atoms: _414  and  _416
REMARK  174  A    between atoms: _416  and  _417
REMARK  175  A    between atoms: _416  and  _419
REMARK  176  A    between atoms: _419  and  _420
REMARK  177  A    between atoms: _423  and  _425
REMARK  178  A    between atoms: _425  and  _426
REMARK  179  A    between atoms: _425  and  _428
REMARK  180  A    between atoms: _428  and  _429
REMARK  181  A    between atoms: _432  and  _434
REMARK  182  A    between atoms: _434  and  _435
REMARK  183  A    between atoms: _434  and  _437
REMARK  184  A    between atoms: _437  and  _438
REMARK  185  A    between atoms: _440  and  _442
REMARK  186  A    between atoms: _442  and  _443
REMARK  187  A    between atoms: _442  and  _445
REMARK  188  A    between atoms: _445  and  _446
REMARK  189  A    between atoms: _456  and  _458
REMARK  190  A    between atoms: _458  and  _459
REMARK  191  A    between atoms: _461  and  _463
REMARK  192  A    between atoms: _463  and  _464
REMARK  193  A    between atoms: _463  and  _466
REMARK  194  A    between atoms: _466  and  _467
REMARK  195  A    between atoms: _467  and  _468
REMARK  196  A    between atoms: _471  and  _473
REMARK  197  A    between atoms: _473  and  _474
REMARK  198  A    between atoms: _476  and  _478
REMARK  199  A    between atoms: _478  and  _479
REMARK  200  A    between atoms: _478  and  _481
REMARK  201  A    between atoms: _481  and  _482
REMARK  202  A    between atoms: _483  and  _485
REMARK  203  A    between atoms: _485  and  _486
REMARK  204  A    between atoms: _489  and  _491
REMARK  205  A    between atoms: _491  and  _492
REMARK  206  A    between atoms: _491  and  _494
REMARK  207  A    between atoms: _494  and  _495
REMARK  208  A    between atoms: _495  and  _496
REMARK  209  A    between atoms: _501  and  _503
REMARK  210  A    between atoms: _503  and  _504
REMARK  211  A    between atoms: _503  and  _506
REMARK  212  A    between atoms: _506  and  _507
REMARK  213  A    between atoms: _507  and  _508
REMARK  214  A    between atoms: _508  and  _509
REMARK  215  A    between atoms: _519  and  _520
REMARK  216  A    between atoms: _525  and  _527
REMARK  217  A    between atoms: _527  and  _528
REMARK  218  A    between atoms: _530  and  _532
REMARK  219  A    between atoms: _532  and  _533
REMARK  220  A    between atoms: _532  and  _535
REMARK  221  A    between atoms: _538  and  _540
REMARK  222  A    between atoms: _540  and  _541
REMARK  223  A    between atoms: _540  and  _543
REMARK  224  A    between atoms: _543  and  _544
REMARK  225  A    between atoms: _549  and  _550
REMARK                            x       y       z     vdW  Elec       q    Type
REMARK                         _______ _______ _______ _____ _____    ______ ____
ROOT
ATOM      1  O   HOH     1      43.774 -21.100  23.043  0.00  0.00    +0.000 OA
ENDROOT
TORSDOF 0
REMARK  Name = ../refined-set-2016/4ty6/4ty6_pocket.pdb
REMARK  225 active torsions:
REMARK  status: ('A' for Active; 'I' for Inactive)
REMARK    1  A    between atoms: _1  and  _5
REMARK    2  A    between atoms: _5  and  _6
REMARK    3  A    between atoms: _5  and  _8
REMARK    4  A    between atoms: _8  and  _9
REMARK    5  A    between atoms: _12  and  _14
REMARK    6  A    between atoms: _14  and  _15
REMARK    7  A    between atoms: _14  and  _17
REMARK    8  A    between atoms: _20  and  _22
REMARK    9  A    between atoms: _22  and  _23
REMARK   10  A    between atoms: _22  and  _25
REMARK   11  A    between atoms: _25  and  _26
REMARK   12  A    between atoms: _29  and  _31
REMARK   13  A    between atoms: _31  and  _32
REMARK   14  A    between atoms: _31  and  _34
REMARK   15  A    between atoms: _34  and  _35
REMARK   16  A    between atoms: _38  and  _40
REMARK   17  A    between atoms: _40  and  _41
REMARK   18  A    between atoms: _40  and  _43
REMARK   19  A    between atoms: _43  and  _44
REMARK   20  A    between atoms: _49  and  _51
REMARK   21  A    between atoms: _51  and  _52
REMARK   22  A    between atoms: _51  and  _54
REMARK   23  A    between atoms: _54  and  _55
REMARK   24  A    between atoms: _58  and  _60
REMARK   25  A    between atoms: _60  and  _61
REMARK   26  A    between atoms: _60  and  _63
REMARK   27  A    between atoms: _63  and  _64
REMARK   28  A    between atoms: _67  and  _69
REMARK   29  A    between atoms: _69  and  _70
REMARK   30  A    between atoms: _69  and  _72
REMARK   31  A    between atoms: _72  and  _73
REMARK   32  A    between atoms: _73  and  _74
REMARK   33  A    between atoms: _79  and  _81
REMARK   34  A    between atoms: _81  and  _82
REMARK   35  A    between atoms: _81  and  _84
REMARK   36  A    between atoms: _84  and  _85
REMARK   37  A    between atoms: _85  and  _86
REMARK   38  A    between atoms: _86  and  _87
REMARK   39  A    between atoms: _96  and  _98
REMARK   40  A    between atoms: _98  and  _99
REMARK   41  A    between atoms: _98  and  _101
REMARK   42  A    between atoms: _101  and  _102
REMARK   43  A    between atoms: _107  and  _109
REMARK   44  A    between atoms: _109  and  _110
REMARK   45  A    between atoms: _109  and  _112
REMARK   46  A    between atoms: _112  and  _113
REMARK   47  A    between atoms: _116  and  _118
REMARK   48  A    between atoms: _118  and  _119
REMARK   49  A    between atoms: _118  and  _121
REMARK   50  A    between atoms: _121  and  _122
REMARK   51  A    between atoms: _122  and  _157
REMARK   52  A    between atoms: _123  and  _125
REMARK   53  A    between atoms: _125  and  _126
REMARK   54  A    between atoms: _128  and  _130
REMARK   55  A    between atoms: _130  and  _131
REMARK   56  A    between atoms: _134  and  _136
REMARK   57  A    between atoms: _136  and  _137
REMARK   58  A    between atoms: _140  and  _142
REMARK   59  A    between atoms: _142  and  _143
REMARK   60  A    between atoms: _142  and  _145
REMARK   61  A    between atoms: _145  and  _146
REMARK   62  A    between atoms: _151  and  _153
REMARK   63  A    between atoms: _153  and  _154
REMARK   64  A    between atoms: _153  and  _156
REMARK   65  A    between atoms: _156  and  _157
REMARK   66  A    between atoms: _158  and  _160
REMARK   67  A    between atoms: _160  and  _161
REMARK   68  A    between atoms: _160  and  _163
REMARK   69  A    between atoms: _163  and  _164
REMARK   70  A    between atoms: _170  and  _172
REMARK   71  A    between atoms: _172  and  _173
REMARK   72  A    between atoms: _172  and  _175
REMARK   73  A    between atoms: _175  and  _176
REMARK   74  A    between atoms: _181  and  _182
REMARK   75  A    between atoms: _184  and  _186
REMARK   76  A    between atoms: _186  and  _187
REMARK   77  A    between atoms: _186  and  _189
REMARK   78  A    between atoms: _192  and  _194
REMARK   79  A    between atoms: _194  and  _195
REMARK   80  A    between atoms: _194  and  _197
REMARK   81  A    between atoms: _197  and  _198
REMARK   82  A    between atoms: _198  and  _199
REMARK   83  A    between atoms: _204  and  _206
REMARK   84  A    between atoms: _206  and  _207
REMARK   85  A    between atoms: _210  and  _212
REMARK   86  A    between atoms: _212  and  _213
REMARK   87  A    between atoms: _212  and  _215
REMARK   88  A    between atoms: _215  and  _216
REMARK   89  A    between atoms: _219  and  _221
REMARK   90  A    between atoms: _221  and  _222
REMARK   91  A    between atoms: _221  and  _224
REMARK   92  A    between atoms: _227  and  _229
REMARK   93  A    between atoms: _229  and  _230
REMARK   94  A    between atoms: _229  and  _232
REMARK   95  A    between atoms: _232  and  _233
REMARK   96  A    between atoms: _243  and  _245
REMARK   97  A    between atoms: _245  and  _246
REMARK   98  A    between atoms: _248  and  _250
REMARK   99  A    between atoms: _250  and  _251
REMARK  100  A    between atoms: _250  and  _253
REMARK  101  A    between atoms: _253  and  _254
REMARK  102  A    between atoms: _259  and  _260
REMARK  103  A    between atoms: _262  and  _264
REMARK  104  A    between atoms: _264  and  _265
REMARK  105  A    between atoms: _264  and  _267
REMARK  106  A    between atoms: _267  and  _268
REMARK  107  A    between atoms: _271  and  _273
REMARK  108  A    between atoms: _273  and  _274
REMARK  109  A    between atoms: _273  and  _276
REMARK  110  A    between atoms: _276  and  _277
REMARK  111  A    between atoms: _280  and  _282
REMARK  112  A    between atoms: _282  and  _283
REMARK  113  A    between atoms: _282  and  _285
REMARK  114  A    between atoms: _285  and  _286
REMARK  115  A    between atoms: _286  and  _287
REMARK  116  A    between atoms: _287  and  _288
REMARK  117  A    between atoms: _288  and  _289
REMARK  118  A    between atoms: _293  and  _295
REMARK  119  A    between atoms: _295  and  _296
REMARK  120  A    between atoms: _295  and  _298
REMARK  121  A    between atoms: _298  and  _299
REMARK  122  A    between atoms: _302  and  _304
REMARK  123  A    between atoms: _304  and  _305
REMARK  124  A    between atoms: _304  and  _307
REMARK  125  A    between atoms: _307  and  _308
REMARK  126  A    between atoms: _308  and  _309
REMARK  127  A    between atoms: _314  and  _316
REMARK  128  A    between atoms: _316  and  _317
REMARK  129  A    between atoms: _316  and  _319
REMARK  130  A    between atoms: _319  and  _320
REMARK  131  A    between atoms: _325  and  _326
REMARK  132  A    between atoms: _328  and  _330
REMARK  133  A    between atoms: _330  and  _331
REMARK  134  A    between atoms: _334  and  _336
REMARK  135  A    between atoms: _336  and  _337
REMARK  136  A    between atoms: _336  and  _339
REMARK  137  A    between atoms: _339  and  _340
REMARK  138  A    between atoms: _340  and  _341
REMARK  139  A    between atoms: _341  and  _342
REMARK  140  A    between atoms: _342  and  _343
REMARK  141  A    between atoms: _347  and  _349
REMARK  142  A    between atoms: _349  and  _350
REMARK  143  A    between atoms: _349  and  _352
REMARK  144  A    between atoms: _352  and  _353
REMARK  145  A    between atoms: _356  and  _358
REMARK  146  A    between atoms: _358  and  _359
REMARK  147  A    between atoms: _362  and  _364
REMARK  148  A    between atoms: _364  and  _365
REMARK  149  A    between atoms: _364  and  _367
REMARK  150  A    between atoms: _367  and  _368
REMARK  151  A    between atoms: _368  and  _482
REMARK  152  A    between atoms: _369  and  _371
REMARK  153  A    between atoms: _371  and  _372
REMARK  154  A    between atoms: _371  and  _374
REMARK  155  A    between atoms: _374  and  _375
REMARK  156  A    between atoms: _375  and  _376
REMARK  157  A    between atoms: _376  and  _377
REMARK  158  A    between atoms: _377  and  _378
REMARK  159  A    between atoms: _382  and  _384
REMARK  160  A    between atoms: _384  and  _385
REMARK  161  A    between atoms: _387  and  _389
REMARK  162  A    between atoms: _389  and  _390
REMARK  163  A    between atoms: _389  and  _392
REMARK  164  A    between atoms: _392  and  _393
REMARK  165  A    between atoms: _396  and  _398
REMARK  166  A    between atoms: _398  and  _399
REMARK  167  A    between atoms: _398  and  _401
REMARK  168  A    between atoms: _401  and  _402
REMARK  169  A    between atoms: _404  and  _406
REMARK  170  A    between atoms: _406  and  _407
REMARK  171  A    between atoms: _409  and  _411
REMARK  172  A    between atoms: _411  and  _412
REMARK  173  A    between atoms: _414  and  _416
REMARK  174  A    between atoms: _416  and  _417
REMARK  175  A    between atoms: _416  and  _419
REMARK  176  A    between atoms: _419  and  _420
REMARK  177  A    between atoms: _423  and  _425
REMARK  178  A    between atoms: _425  and  _426
REMARK  179  A    between atoms: _425  and  _428
REMARK  180  A    between atoms: _428  and  _429
REMARK  181  A    between atoms: _432  and  _434
REMARK  182  A    between atoms: _434  and  _435
REMARK  183  A    between atoms: _434  and  _437
REMARK  184  A    between atoms: _437  and  _438
REMARK  185  A    between atoms: _440  and  _442
REMARK  186  A    between atoms: _442  and  _443
REMARK  187  A    between atoms: _442  and  _445
REMARK  188  A    between atoms: _445  and  _446
REMARK  189  A    between atoms: _456  and  _458
REMARK  190  A    between atoms: _458  and  _459
REMARK  191  A    between atoms: _461  and  _463
REMARK  192  A    between atoms: _463  and  _464
REMARK  193  A    between atoms: _463  and  _466
REMARK  194  A    between atoms: _466  and  _467
REMARK  195  A    between atoms: _467  and  _468
REMARK  196  A    between atoms: _471  and  _473
REMARK  197  A    between atoms: _473  and  _474
REMARK  198  A    between atoms: _476  and  _478
REMARK  199  A    between atoms: _478  and  _479
REMARK  200  A    between atoms: _478  and  _481
REMARK  201  A    between atoms: _481  and  _482
REMARK  202  A    between atoms: _483  and  _485
REMARK  203  A    between atoms: _485  and  _486
REMARK  204  A    between atoms: _489  and  _491
REMARK  205  A    between atoms: _491  and  _492
REMARK  206  A    between atoms: _491  and  _494
REMARK  207  A    between atoms: _494  and  _495
REMARK  208  A    between atoms: _495  and  _496
REMARK  209  A    between atoms: _501  and  _503
REMARK  210  A    between atoms: _503  and  _504
REMARK  211  A    between atoms: _503  and  _506
REMARK  212  A    between atoms: _506  and  _507
REMARK  213  A    between atoms: _507  and  _508
REMARK  214  A    between atoms: _508  and  _509
REMARK  215  A    between atoms: _519  and  _520
REMARK  216  A    between atoms: _525  and  _527
REMARK  217  A    between atoms: _527  and  _528
REMARK  218  A    between atoms: _530  and  _532
REMARK  219  A    between atoms: _532  and  _533
REMARK  220  A    between atoms: _532  and  _535
REMARK  221  A    between atoms: _538  and  _540
REMARK  222  A    between atoms: _540  and  _541
REMARK  223  A    between atoms: _540  and  _543
REMARK  224  A    between atoms: _543  and  _544
REMARK  225  A    between atoms: _549  and  _550
REMARK                            x       y       z     vdW  Elec       q    Type
REMARK                         _______ _______ _______ _____ _____    ______ ____
ROOT
ATOM      1  O   HOH     1      41.138 -17.970  37.711  0.00  0.00    +0.000 OA
ENDROOT
TORSDOF 0
REMARK  Name = ../refined-set-2016/4ty6/4ty6_pocket.pdb
REMARK  225 active torsions:
REMARK  status: ('A' for Active; 'I' for Inactive)
REMARK    1  A    between atoms: _1  and  _5
REMARK    2  A    between atoms: _5  and  _6
REMARK    3  A    between atoms: _5  and  _8
REMARK    4  A    between atoms: _8  and  _9
REMARK    5  A    between atoms: _12  and  _14
REMARK    6  A    between atoms: _14  and  _15
REMARK    7  A    between atoms: _14  and  _17
REMARK    8  A    between atoms: _20  and  _22
REMARK    9  A    between atoms: _22  and  _23
REMARK   10  A    between atoms: _22  and  _25
REMARK   11  A    between atoms: _25  and  _26
REMARK   12  A    between atoms: _29  and  _31
REMARK   13  A    between atoms: _31  and  _32
REMARK   14  A    between atoms: _31  and  _34
REMARK   15  A    between atoms: _34  and  _35
REMARK   16  A    between atoms: _38  and  _40
REMARK   17  A    between atoms: _40  and  _41
REMARK   18  A    between atoms: _40  and  _43
REMARK   19  A    between atoms: _43  and  _44
REMARK   20  A    between atoms: _49  and  _51
REMARK   21  A    between atoms: _51  and  _52
REMARK   22  A    between atoms: _51  and  _54
REMARK   23  A    between atoms: _54  and  _55
REMARK   24  A    between atoms: _58  and  _60
REMARK   25  A    between atoms: _60  and  _61
REMARK   26  A    between atoms: _60  and  _63
REMARK   27  A    between atoms: _63  and  _64
REMARK   28  A    between atoms: _67  and  _69
REMARK   29  A    between atoms: _69  and  _70
REMARK   30  A    between atoms: _69  and  _72
REMARK   31  A    between atoms: _72  and  _73
REMARK   32  A    between atoms: _73  and  _74
REMARK   33  A    between atoms: _79  and  _81
REMARK   34  A    between atoms: _81  and  _82
REMARK   35  A    between atoms: _81  and  _84
REMARK   36  A    between atoms: _84  and  _85
REMARK   37  A    between atoms: _85  and  _86
REMARK   38  A    between atoms: _86  and  _87
REMARK   39  A    between atoms: _96  and  _98
REMARK   40  A    between atoms: _98  and  _99
REMARK   41  A    between atoms: _98  and  _101
REMARK   42  A    between atoms: _101  and  _102
REMARK   43  A    between atoms: _107  and  _109
REMARK   44  A    between atoms: _109  and  _110
REMARK   45  A    between atoms: _109  and  _112
REMARK   46  A    between atoms: _112  and  _113
REMARK   47  A    between atoms: _116  and  _118
REMARK   48  A    between atoms: _118  and  _119
REMARK   49  A    between atoms: _118  and  _121
REMARK   50  A    between atoms: _121  and  _122
REMARK   51  A    between atoms: _122  and  _157
REMARK   52  A    between atoms: _123  and  _125
REMARK   53  A    between atoms: _125  and  _126
REMARK   54  A    between atoms: _128  and  _130
REMARK   55  A    between atoms: _130  and  _131
REMARK   56  A    between atoms: _134  and  _136
REMARK   57  A    between atoms: _136  and  _137
REMARK   58  A    between atoms: _140  and  _142
REMARK   59  A    between atoms: _142  and  _143
REMARK   60  A    between atoms: _142  and  _145
REMARK   61  A    between atoms: _145  and  _146
REMARK   62  A    between atoms: _151  and  _153
REMARK   63  A    between atoms: _153  and  _154
REMARK   64  A    between atoms: _153  and  _156
REMARK   65  A    between atoms: _156  and  _157
REMARK   66  A    between atoms: _158  and  _160
REMARK   67  A    between atoms: _160  and  _161
REMARK   68  A    between atoms: _160  and  _163
REMARK   69  A    between atoms: _163  and  _164
REMARK   70  A    between atoms: _170  and  _172
REMARK   71  A    between atoms: _172  and  _173
REMARK   72  A    between atoms: _172  and  _175
REMARK   73  A    between atoms: _175  and  _176
REMARK   74  A    between atoms: _181  and  _182
REMARK   75  A    between atoms: _184  and  _186
REMARK   76  A    between atoms: _186  and  _187
REMARK   77  A    between atoms: _186  and  _189
REMARK   78  A    between atoms: _192  and  _194
REMARK   79  A    between atoms: _194  and  _195
REMARK   80  A    between atoms: _194  and  _197
REMARK   81  A    between atoms: _197  and  _198
REMARK   82  A    between atoms: _198  and  _199
REMARK   83  A    between atoms: _204  and  _206
REMARK   84  A    between atoms: _206  and  _207
REMARK   85  A    between atoms: _210  and  _212
REMARK   86  A    between atoms: _212  and  _213
REMARK   87  A    between atoms: _212  and  _215
REMARK   88  A    between atoms: _215  and  _216
REMARK   89  A    between atoms: _219  and  _221
REMARK   90  A    between atoms: _221  and  _222
REMARK   91  A    between atoms: _221  and  _224
REMARK   92  A    between atoms: _227  and  _229
REMARK   93  A    between atoms: _229  and  _230
REMARK   94  A    between atoms: _229  and  _232
REMARK   95  A    between atoms: _232  and  _233
REMARK   96  A    between atoms: _243  and  _245
REMARK   97  A    between atoms: _245  and  _246
REMARK   98  A    between atoms: _248  and  _250
REMARK   99  A    between atoms: _250  and  _251
REMARK  100  A    between atoms: _250  and  _253
REMARK  101  A    between atoms: _253  and  _254
REMARK  102  A    between atoms: _259  and  _260
REMARK  103  A    between atoms: _262  and  _264
REMARK  104  A    between atoms: _264  and  _265
REMARK  105  A    between atoms: _264  and  _267
REMARK  106  A    between atoms: _267  and  _268
REMARK  107  A    between atoms: _271  and  _273
REMARK  108  A    between atoms: _273  and  _274
REMARK  109  A    between atoms: _273  and  _276
REMARK  110  A    between atoms: _276  and  _277
REMARK  111  A    between atoms: _280  and  _282
REMARK  112  A    between atoms: _282  and  _283
REMARK  113  A    between atoms: _282  and  _285
REMARK  114  A    between atoms: _285  and  _286
REMARK  115  A    between atoms: _286  and  _287
REMARK  116  A    between atoms: _287  and  _288
REMARK  117  A    between atoms: _288  and  _289
REMARK  118  A    between atoms: _293  and  _295
REMARK  119  A    between atoms: _295  and  _296
REMARK  120  A    between atoms: _295  and  _298
REMARK  121  A    between atoms: _298  and  _299
REMARK  122  A    between atoms: _302  and  _304
REMARK  123  A    between atoms: _304  and  _305
REMARK  124  A    between atoms: _304  and  _307
REMARK  125  A    between atoms: _307  and  _308
REMARK  126  A    between atoms: _308  and  _309
REMARK  127  A    between atoms: _314  and  _316
REMARK  128  A    between atoms: _316  and  _317
REMARK  129  A    between atoms: _316  and  _319
REMARK  130  A    between atoms: _319  and  _320
REMARK  131  A    between atoms: _325  and  _326
REMARK  132  A    between atoms: _328  and  _330
REMARK  133  A    between atoms: _330  and  _331
REMARK  134  A    between atoms: _334  and  _336
REMARK  135  A    between atoms: _336  and  _337
REMARK  136  A    between atoms: _336  and  _339
REMARK  137  A    between atoms: _339  and  _340
REMARK  138  A    between atoms: _340  and  _341
REMARK  139  A    between atoms: _341  and  _342
REMARK  140  A    between atoms: _342  and  _343
REMARK  141  A    between atoms: _347  and  _349
REMARK  142  A    between atoms: _349  and  _350
REMARK  143  A    between atoms: _349  and  _352
REMARK  144  A    between atoms: _352  and  _353
REMARK  145  A    between atoms: _356  and  _358
REMARK  146  A    between atoms: _358  and  _359
REMARK  147  A    between atoms: _362  and  _364
REMARK  148  A    between atoms: _364  and  _365
REMARK  149  A    between atoms: _364  and  _367
REMARK  150  A    between atoms: _367  and  _368
REMARK  151  A    between atoms: _368  and  _482
REMARK  152  A    between atoms: _369  and  _371
REMARK  153  A    between atoms: _371  and  _372
REMARK  154  A    between atoms: _371  and  _374
REMARK  155  A    between atoms: _374  and  _375
REMARK  156  A    between atoms: _375  and  _376
REMARK  157  A    between atoms: _376  and  _377
REMARK  158  A    between atoms: _377  and  _378
REMARK  159  A    between atoms: _382  and  _384
REMARK  160  A    between atoms: _384  and  _385
REMARK  161  A    between atoms: _387  and  _389
REMARK  162  A    between atoms: _389  and  _390
REMARK  163  A    between atoms: _389  and  _392
REMARK  164  A    between atoms: _392  and  _393
REMARK  165  A    between atoms: _396  and  _398
REMARK  166  A    between atoms: _398  and  _399
REMARK  167  A    between atoms: _398  and  _401
REMARK  168  A    between atoms: _401  and  _402
REMARK  169  A    between atoms: _404  and  _406
REMARK  170  A    between atoms: _406  and  _407
REMARK  171  A    between atoms: _409  and  _411
REMARK  172  A    between atoms: _411  and  _412
REMARK  173  A    between atoms: _414  and  _416
REMARK  174  A    between atoms: _416  and  _417
REMARK  175  A    between atoms: _416  and  _419
REMARK  176  A    between atoms: _419  and  _420
REMARK  177  A    between atoms: _423  and  _425
REMARK  178  A    between atoms: _425  and  _426
REMARK  179  A    between atoms: _425  and  _428
REMARK  180  A    between atoms: _428  and  _429
REMARK  181  A    between atoms: _432  and  _434
REMARK  182  A    between atoms: _434  and  _435
REMARK  183  A    between atoms: _434  and  _437
REMARK  184  A    between atoms: _437  and  _438
REMARK  185  A    between atoms: _440  and  _442
REMARK  186  A    between atoms: _442  and  _443
REMARK  187  A    between atoms: _442  and  _445
REMARK  188  A    between atoms: _445  and  _446
REMARK  189  A    between atoms: _456  and  _458
REMARK  190  A    between atoms: _458  and  _459
REMARK  191  A    between atoms: _461  and  _463
REMARK  192  A    between atoms: _463  and  _464
REMARK  193  A    between atoms: _463  and  _466
REMARK  194  A    between atoms: _466  and  _467
REMARK  195  A    between atoms: _467  and  _468
REMARK  196  A    between atoms: _471  and  _473
REMARK  197  A    between atoms: _473  and  _474
REMARK  198  A    between atoms: _476  and  _478
REMARK  199  A    between atoms: _478  and  _479
REMARK  200  A    between atoms: _478  and  _481
REMARK  201  A    between atoms: _481  and  _482
REMARK  202  A    between atoms: _483  and  _485
REMARK  203  A    between atoms: _485  and  _486
REMARK  204  A    between atoms: _489  and  _491
REMARK  205  A    between atoms: _491  and  _492
REMARK  206  A    between atoms: _491  and  _494
REMARK  207  A    between atoms: _494  and  _495
REMARK  208  A    between atoms: _495  and  _496
REMARK  209  A    between atoms: _501  and  _503
REMARK  210  A    between atoms: _503  and  _504
REMARK  211  A    between atoms: _503  and  _506
REMARK  212  A    between atoms: _506  and  _507
REMARK  213  A    between atoms: _507  and  _508
REMARK  214  A    between atoms: _508  and  _509
REMARK  215  A    between atoms: _519  and  _520
REMARK  216  A    between atoms: _525  and  _527
REMARK  217  A    between atoms: _527  and  _528
REMARK  218  A    between atoms: _530  and  _532
REMARK  219  A    between atoms: _532  and  _533
REMARK  220  A    between atoms: _532  and  _535
REMARK  221  A    between atoms: _538  and  _540
REMARK  222  A    between atoms: _540  and  _541
REMARK  223  A    between atoms: _540  and  _543
REMARK  224  A    between atoms: _543  and  _544
REMARK  225  A    between atoms: _549  and  _550
REMARK                            x       y       z     vdW  Elec       q    Type
REMARK                         _______ _______ _______ _____ _____    ______ ____
ROOT
ATOM      1  O   HOH     1      40.868 -21.308  32.402  0.00  0.00    +0.000 OA
ENDROOT
TORSDOF 0
REMARK  Name = ../refined-set-2016/4ty6/4ty6_pocket.pdb
REMARK  225 active torsions:
REMARK  status: ('A' for Active; 'I' for Inactive)
REMARK    1  A    between atoms: _1  and  _5
REMARK    2  A    between atoms: _5  and  _6
REMARK    3  A    between atoms: _5  and  _8
REMARK    4  A    between atoms: _8  and  _9
REMARK    5  A    between atoms: _12  and  _14
REMARK    6  A    between atoms: _14  and  _15
REMARK    7  A    between atoms: _14  and  _17
REMARK    8  A    between atoms: _20  and  _22
REMARK    9  A    between atoms: _22  and  _23
REMARK   10  A    between atoms: _22  and  _25
REMARK   11  A    between atoms: _25  and  _26
REMARK   12  A    between atoms: _29  and  _31
REMARK   13  A    between atoms: _31  and  _32
REMARK   14  A    between atoms: _31  and  _34
REMARK   15  A    between atoms: _34  and  _35
REMARK   16  A    between atoms: _38  and  _40
REMARK   17  A    between atoms: _40  and  _41
REMARK   18  A    between atoms: _40  and  _43
REMARK   19  A    between atoms: _43  and  _44
REMARK   20  A    between atoms: _49  and  _51
REMARK   21  A    between atoms: _51  and  _52
REMARK   22  A    between atoms: _51  and  _54
REMARK   23  A    between atoms: _54  and  _55
REMARK   24  A    between atoms: _58  and  _60
REMARK   25  A    between atoms: _60  and  _61
REMARK   26  A    between atoms: _60  and  _63
REMARK   27  A    between atoms: _63  and  _64
REMARK   28  A    between atoms: _67  and  _69
REMARK   29  A    between atoms: _69  and  _70
REMARK   30  A    between atoms: _69  and  _72
REMARK   31  A    between atoms: _72  and  _73
REMARK   32  A    between atoms: _73  and  _74
REMARK   33  A    between atoms: _79  and  _81
REMARK   34  A    between atoms: _81  and  _82
REMARK   35  A    between atoms: _81  and  _84
REMARK   36  A    between atoms: _84  and  _85
REMARK   37  A    between atoms: _85  and  _86
REMARK   38  A    between atoms: _86  and  _87
REMARK   39  A    between atoms: _96  and  _98
REMARK   40  A    between atoms: _98  and  _99
REMARK   41  A    between atoms: _98  and  _101
REMARK   42  A    between atoms: _101  and  _102
REMARK   43  A    between atoms: _107  and  _109
REMARK   44  A    between atoms: _109  and  _110
REMARK   45  A    between atoms: _109  and  _112
REMARK   46  A    between atoms: _112  and  _113
REMARK   47  A    between atoms: _116  and  _118
REMARK   48  A    between atoms: _118  and  _119
REMARK   49  A    between atoms: _118  and  _121
REMARK   50  A    between atoms: _121  and  _122
REMARK   51  A    between atoms: _122  and  _157
REMARK   52  A    between atoms: _123  and  _125
REMARK   53  A    between atoms: _125  and  _126
REMARK   54  A    between atoms: _128  and  _130
REMARK   55  A    between atoms: _130  and  _131
REMARK   56  A    between atoms: _134  and  _136
REMARK   57  A    between atoms: _136  and  _137
REMARK   58  A    between atoms: _140  and  _142
REMARK   59  A    between atoms: _142  and  _143
REMARK   60  A    between atoms: _142  and  _145
REMARK   61  A    between atoms: _145  and  _146
REMARK   62  A    between atoms: _151  and  _153
REMARK   63  A    between atoms: _153  and  _154
REMARK   64  A    between atoms: _153  and  _156
REMARK   65  A    between atoms: _156  and  _157
REMARK   66  A    between atoms: _158  and  _160
REMARK   67  A    between atoms: _160  and  _161
REMARK   68  A    between atoms: _160  and  _163
REMARK   69  A    between atoms: _163  and  _164
REMARK   70  A    between atoms: _170  and  _172
REMARK   71  A    between atoms: _172  and  _173
REMARK   72  A    between atoms: _172  and  _175
REMARK   73  A    between atoms: _175  and  _176
REMARK   74  A    between atoms: _181  and  _182
REMARK   75  A    between atoms: _184  and  _186
REMARK   76  A    between atoms: _186  and  _187
REMARK   77  A    between atoms: _186  and  _189
REMARK   78  A    between atoms: _192  and  _194
REMARK   79  A    between atoms: _194  and  _195
REMARK   80  A    between atoms: _194  and  _197
REMARK   81  A    between atoms: _197  and  _198
REMARK   82  A    between atoms: _198  and  _199
REMARK   83  A    between atoms: _204  and  _206
REMARK   84  A    between atoms: _206  and  _207
REMARK   85  A    between atoms: _210  and  _212
REMARK   86  A    between atoms: _212  and  _213
REMARK   87  A    between atoms: _212  and  _215
REMARK   88  A    between atoms: _215  and  _216
REMARK   89  A    between atoms: _219  and  _221
REMARK   90  A    between atoms: _221  and  _222
REMARK   91  A    between atoms: _221  and  _224
REMARK   92  A    between atoms: _227  and  _229
REMARK   93  A    between atoms: _229  and  _230
REMARK   94  A    between atoms: _229  and  _232
REMARK   95  A    between atoms: _232  and  _233
REMARK   96  A    between atoms: _243  and  _245
REMARK   97  A    between atoms: _245  and  _246
REMARK   98  A    between atoms: _248  and  _250
REMARK   99  A    between atoms: _250  and  _251
REMARK  100  A    between atoms: _250  and  _253
REMARK  101  A    between atoms: _253  and  _254
REMARK  102  A    between atoms: _259  and  _260
REMARK  103  A    between atoms: _262  and  _264
REMARK  104  A    between atoms: _264  and  _265
REMARK  105  A    between atoms: _264  and  _267
REMARK  106  A    between atoms: _267  and  _268
REMARK  107  A    between atoms: _271  and  _273
REMARK  108  A    between atoms: _273  and  _274
REMARK  109  A    between atoms: _273  and  _276
REMARK  110  A    between atoms: _276  and  _277
REMARK  111  A    between atoms: _280  and  _282
REMARK  112  A    between atoms: _282  and  _283
REMARK  113  A    between atoms: _282  and  _285
REMARK  114  A    between atoms: _285  and  _286
REMARK  115  A    between atoms: _286  and  _287
REMARK  116  A    between atoms: _287  and  _288
REMARK  117  A    between atoms: _288  and  _289
REMARK  118  A    between atoms: _293  and  _295
REMARK  119  A    between atoms: _295  and  _296
REMARK  120  A    between atoms: _295  and  _298
REMARK  121  A    between atoms: _298  and  _299
REMARK  122  A    between atoms: _302  and  _304
REMARK  123  A    between atoms: _304  and  _305
REMARK  124  A    between atoms: _304  and  _307
REMARK  125  A    between atoms: _307  and  _308
REMARK  126  A    between atoms: _308  and  _309
REMARK  127  A    between atoms: _314  and  _316
REMARK  128  A    between atoms: _316  and  _317
REMARK  129  A    between atoms: _316  and  _319
REMARK  130  A    between atoms: _319  and  _320
REMARK  131  A    between atoms: _325  and  _326
REMARK  132  A    between atoms: _328  and  _330
REMARK  133  A    between atoms: _330  and  _331
REMARK  134  A    between atoms: _334  and  _336
REMARK  135  A    between atoms: _336  and  _337
REMARK  136  A    between atoms: _336  and  _339
REMARK  137  A    between atoms: _339  and  _340
REMARK  138  A    between atoms: _340  and  _341
REMARK  139  A    between atoms: _341  and  _342
REMARK  140  A    between atoms: _342  and  _343
REMARK  141  A    between atoms: _347  and  _349
REMARK  142  A    between atoms: _349  and  _350
REMARK  143  A    between atoms: _349  and  _352
REMARK  144  A    between atoms: _352  and  _353
REMARK  145  A    between atoms: _356  and  _358
REMARK  146  A    between atoms: _358  and  _359
REMARK  147  A    between atoms: _362  and  _364
REMARK  148  A    between atoms: _364  and  _365
REMARK  149  A    between atoms: _364  and  _367
REMARK  150  A    between atoms: _367  and  _368
REMARK  151  A    between atoms: _368  and  _482
REMARK  152  A    between atoms: _369  and  _371
REMARK  153  A    between atoms: _371  and  _372
REMARK  154  A    between atoms: _371  and  _374
REMARK  155  A    between atoms: _374  and  _375
REMARK  156  A    between atoms: _375  and  _376
REMARK  157  A    between atoms: _376  and  _377
REMARK  158  A    between atoms: _377  and  _378
REMARK  159  A    between atoms: _382  and  _384
REMARK  160  A    between atoms: _384  and  _385
REMARK  161  A    between atoms: _387  and  _389
REMARK  162  A    between atoms: _389  and  _390
REMARK  163  A    between atoms: _389  and  _392
REMARK  164  A    between atoms: _392  and  _393
REMARK  165  A    between atoms: _396  and  _398
REMARK  166  A    between atoms: _398  and  _399
REMARK  167  A    between atoms: _398  and  _401
REMARK  168  A    between atoms: _401  and  _402
REMARK  169  A    between atoms: _404  and  _406
REMARK  170  A    between atoms: _406  and  _407
REMARK  171  A    between atoms: _409  and  _411
REMARK  172  A    between atoms: _411  and  _412
REMARK  173  A    between atoms: _414  and  _416
REMARK  174  A    between atoms: _416  and  _417
REMARK  175  A    between atoms: _416  and  _419
REMARK  176  A    between atoms: _419  and  _420
REMARK  177  A    between atoms: _423  and  _425
REMARK  178  A    between atoms: _425  and  _426
REMARK  179  A    between atoms: _425  and  _428
REMARK  180  A    between atoms: _428  and  _429
REMARK  181  A    between atoms: _432  and  _434
REMARK  182  A    between atoms: _434  and  _435
REMARK  183  A    between atoms: _434  and  _437
REMARK  184  A    between atoms: _437  and  _438
REMARK  185  A    between atoms: _440  and  _442
REMARK  186  A    between atoms: _442  and  _443
REMARK  187  A    between atoms: _442  and  _445
REMARK  188  A    between atoms: _445  and  _446
REMARK  189  A    between atoms: _456  and  _458
REMARK  190  A    between atoms: _458  and  _459
REMARK  191  A    between atoms: _461  and  _463
REMARK  192  A    between atoms: _463  and  _464
REMARK  193  A    between atoms: _463  and  _466
REMARK  194  A    between atoms: _466  and  _467
REMARK  195  A    between atoms: _467  and  _468
REMARK  196  A    between atoms: _471  and  _473
REMARK  197  A    between atoms: _473  and  _474
REMARK  198  A    between atoms: _476  and  _478
REMARK  199  A    between atoms: _478  and  _479
REMARK  200  A    between atoms: _478  and  _481
REMARK  201  A    between atoms: _481  and  _482
REMARK  202  A    between atoms: _483  and  _485
REMARK  203  A    between atoms: _485  and  _486
REMARK  204  A    between atoms: _489  and  _491
REMARK  205  A    between atoms: _491  and  _492
REMARK  206  A    between atoms: _491  and  _494
REMARK  207  A    between atoms: _494  and  _495
REMARK  208  A    between atoms: _495  and  _496
REMARK  209  A    between atoms: _501  and  _503
REMARK  210  A    between atoms: _503  and  _504
REMARK  211  A    between atoms: _503  and  _506
REMARK  212  A    between atoms: _506  and  _507
REMARK  213  A    between atoms: _507  and  _508
REMARK  214  A    between atoms: _508  and  _509
REMARK  215  A    between atoms: _519  and  _520
REMARK  216  A    between atoms: _525  and  _527
REMARK  217  A    between atoms: _527  and  _528
REMARK  218  A    between atoms: _530  and  _532
REMARK  219  A    between atoms: _532  and  _533
REMARK  220  A    between atoms: _532  and  _535
REMARK  221  A    between atoms: _538  and  _540
REMARK  222  A    between atoms: _540  and  _541
REMARK  223  A    between atoms: _540  and  _543
REMARK  224  A    between atoms: _543  and  _544
REMARK  225  A    between atoms: _549  and  _550
REMARK                            x       y       z     vdW  Elec       q    Type
REMARK                         _______ _______ _______ _____ _____    ______ ____
ROOT
ATOM      1  O   HOH     1      36.733  -9.172  24.305  0.00  0.00    +0.000 OA
ENDROOT
TORSDOF 0
REMARK  Name = ../refined-set-2016/4ty6/4ty6_pocket.pdb
REMARK  225 active torsions:
REMARK  status: ('A' for Active; 'I' for Inactive)
REMARK    1  A    between atoms: _1  and  _5
REMARK    2  A    between atoms: _5  and  _6
REMARK    3  A    between atoms: _5  and  _8
REMARK    4  A    between atoms: _8  and  _9
REMARK    5  A    between atoms: _12  and  _14
REMARK    6  A    between atoms: _14  and  _15
REMARK    7  A    between atoms: _14  and  _17
REMARK    8  A    between atoms: _20  and  _22
REMARK    9  A    between atoms: _22  and  _23
REMARK   10  A    between atoms: _22  and  _25
REMARK   11  A    between atoms: _25  and  _26
REMARK   12  A    between atoms: _29  and  _31
REMARK   13  A    between atoms: _31  and  _32
REMARK   14  A    between atoms: _31  and  _34
REMARK   15  A    between atoms: _34  and  _35
REMARK   16  A    between atoms: _38  and  _40
REMARK   17  A    between atoms: _40  and  _41
REMARK   18  A    between atoms: _40  and  _43
REMARK   19  A    between atoms: _43  and  _44
REMARK   20  A    between atoms: _49  and  _51
REMARK   21  A    between atoms: _51  and  _52
REMARK   22  A    between atoms: _51  and  _54
REMARK   23  A    between atoms: _54  and  _55
REMARK   24  A    between atoms: _58  and  _60
REMARK   25  A    between atoms: _60  and  _61
REMARK   26  A    between atoms: _60  and  _63
REMARK   27  A    between atoms: _63  and  _64
REMARK   28  A    between atoms: _67  and  _69
REMARK   29  A    between atoms: _69  and  _70
REMARK   30  A    between atoms: _69  and  _72
REMARK   31  A    between atoms: _72  and  _73
REMARK   32  A    between atoms: _73  and  _74
REMARK   33  A    between atoms: _79  and  _81
REMARK   34  A    between atoms: _81  and  _82
REMARK   35  A    between atoms: _81  and  _84
REMARK   36  A    between atoms: _84  and  _85
REMARK   37  A    between atoms: _85  and  _86
REMARK   38  A    between atoms: _86  and  _87
REMARK   39  A    between atoms: _96  and  _98
REMARK   40  A    between atoms: _98  and  _99
REMARK   41  A    between atoms: _98  and  _101
REMARK   42  A    between atoms: _101  and  _102
REMARK   43  A    between atoms: _107  and  _109
REMARK   44  A    between atoms: _109  and  _110
REMARK   45  A    between atoms: _109  and  _112
REMARK   46  A    between atoms: _112  and  _113
REMARK   47  A    between atoms: _116  and  _118
REMARK   48  A    between atoms: _118  and  _119
REMARK   49  A    between atoms: _118  and  _121
REMARK   50  A    between atoms: _121  and  _122
REMARK   51  A    between atoms: _122  and  _157
REMARK   52  A    between atoms: _123  and  _125
REMARK   53  A    between atoms: _125  and  _126
REMARK   54  A    between atoms: _128  and  _130
REMARK   55  A    between atoms: _130  and  _131
REMARK   56  A    between atoms: _134  and  _136
REMARK   57  A    between atoms: _136  and  _137
REMARK   58  A    between atoms: _140  and  _142
REMARK   59  A    between atoms: _142  and  _143
REMARK   60  A    between atoms: _142  and  _145
REMARK   61  A    between atoms: _145  and  _146
REMARK   62  A    between atoms: _151  and  _153
REMARK   63  A    between atoms: _153  and  _154
REMARK   64  A    between atoms: _153  and  _156
REMARK   65  A    between atoms: _156  and  _157
REMARK   66  A    between atoms: _158  and  _160
REMARK   67  A    between atoms: _160  and  _161
REMARK   68  A    between atoms: _160  and  _163
REMARK   69  A    between atoms: _163  and  _164
REMARK   70  A    between atoms: _170  and  _172
REMARK   71  A    between atoms: _172  and  _173
REMARK   72  A    between atoms: _172  and  _175
REMARK   73  A    between atoms: _175  and  _176
REMARK   74  A    between atoms: _181  and  _182
REMARK   75  A    between atoms: _184  and  _186
REMARK   76  A    between atoms: _186  and  _187
REMARK   77  A    between atoms: _186  and  _189
REMARK   78  A    between atoms: _192  and  _194
REMARK   79  A    between atoms: _194  and  _195
REMARK   80  A    between atoms: _194  and  _197
REMARK   81  A    between atoms: _197  and  _198
REMARK   82  A    between atoms: _198  and  _199
REMARK   83  A    between atoms: _204  and  _206
REMARK   84  A    between atoms: _206  and  _207
REMARK   85  A    between atoms: _210  and  _212
REMARK   86  A    between atoms: _212  and  _213
REMARK   87  A    between atoms: _212  and  _215
REMARK   88  A    between atoms: _215  and  _216
REMARK   89  A    between atoms: _219  and  _221
REMARK   90  A    between atoms: _221  and  _222
REMARK   91  A    between atoms: _221  and  _224
REMARK   92  A    between atoms: _227  and  _229
REMARK   93  A    between atoms: _229  and  _230
REMARK   94  A    between atoms: _229  and  _232
REMARK   95  A    between atoms: _232  and  _233
REMARK   96  A    between atoms: _243  and  _245
REMARK   97  A    between atoms: _245  and  _246
REMARK   98  A    between atoms: _248  and  _250
REMARK   99  A    between atoms: _250  and  _251
REMARK  100  A    between atoms: _250  and  _253
REMARK  101  A    between atoms: _253  and  _254
REMARK  102  A    between atoms: _259  and  _260
REMARK  103  A    between atoms: _262  and  _264
REMARK  104  A    between atoms: _264  and  _265
REMARK  105  A    between atoms: _264  and  _267
REMARK  106  A    between atoms: _267  and  _268
REMARK  107  A    between atoms: _271  and  _273
REMARK  108  A    between atoms: _273  and  _274
REMARK  109  A    between atoms: _273  and  _276
REMARK  110  A    between atoms: _276  and  _277
REMARK  111  A    between atoms: _280  and  _282
REMARK  112  A    between atoms: _282  and  _283
REMARK  113  A    between atoms: _282  and  _285
REMARK  114  A    between atoms: _285  and  _286
REMARK  115  A    between atoms: _286  and  _287
REMARK  116  A    between atoms: _287  and  _288
REMARK  117  A    between atoms: _288  and  _289
REMARK  118  A    between atoms: _293  and  _295
REMARK  119  A    between atoms: _295  and  _296
REMARK  120  A    between atoms: _295  and  _298
REMARK  121  A    between atoms: _298  and  _299
REMARK  122  A    between atoms: _302  and  _304
REMARK  123  A    between atoms: _304  and  _305
REMARK  124  A    between atoms: _304  and  _307
REMARK  125  A    between atoms: _307  and  _308
REMARK  126  A    between atoms: _308  and  _309
REMARK  127  A    between atoms: _314  and  _316
REMARK  128  A    between atoms: _316  and  _317
REMARK  129  A    between atoms: _316  and  _319
REMARK  130  A    between atoms: _319  and  _320
REMARK  131  A    between atoms: _325  and  _326
REMARK  132  A    between atoms: _328  and  _330
REMARK  133  A    between atoms: _330  and  _331
REMARK  134  A    between atoms: _334  and  _336
REMARK  135  A    between atoms: _336  and  _337
REMARK  136  A    between atoms: _336  and  _339
REMARK  137  A    between atoms: _339  and  _340
REMARK  138  A    between atoms: _340  and  _341
REMARK  139  A    between atoms: _341  and  _342
REMARK  140  A    between atoms: _342  and  _343
REMARK  141  A    between atoms: _347  and  _349
REMARK  142  A    between atoms: _349  and  _350
REMARK  143  A    between atoms: _349  and  _352
REMARK  144  A    between atoms: _352  and  _353
REMARK  145  A    between atoms: _356  and  _358
REMARK  146  A    between atoms: _358  and  _359
REMARK  147  A    between atoms: _362  and  _364
REMARK  148  A    between atoms: _364  and  _365
REMARK  149  A    between atoms: _364  and  _367
REMARK  150  A    between atoms: _367  and  _368
REMARK  151  A    between atoms: _368  and  _482
REMARK  152  A    between atoms: _369  and  _371
REMARK  153  A    between atoms: _371  and  _372
REMARK  154  A    between atoms: _371  and  _374
REMARK  155  A    between atoms: _374  and  _375
REMARK  156  A    between atoms: _375  and  _376
REMARK  157  A    between atoms: _376  and  _377
REMARK  158  A    between atoms: _377  and  _378
REMARK  159  A    between atoms: _382  and  _384
REMARK  160  A    between atoms: _384  and  _385
REMARK  161  A    between atoms: _387  and  _389
REMARK  162  A    between atoms: _389  and  _390
REMARK  163  A    between atoms: _389  and  _392
REMARK  164  A    between atoms: _392  and  _393
REMARK  165  A    between atoms: _396  and  _398
REMARK  166  A    between atoms: _398  and  _399
REMARK  167  A    between atoms: _398  and  _401
REMARK  168  A    between atoms: _401  and  _402
REMARK  169  A    between atoms: _404  and  _406
REMARK  170  A    between atoms: _406  and  _407
REMARK  171  A    between atoms: _409  and  _411
REMARK  172  A    between atoms: _411  and  _412
REMARK  173  A    between atoms: _414  and  _416
REMARK  174  A    between atoms: _416  and  _417
REMARK  175  A    between atoms: _416  and  _419
REMARK  176  A    between atoms: _419  and  _420
REMARK  177  A    between atoms: _423  and  _425
REMARK  178  A    between atoms: _425  and  _426
REMARK  179  A    between atoms: _425  and  _428
REMARK  180  A    between atoms: _428  and  _429
REMARK  181  A    between atoms: _432  and  _434
REMARK  182  A    between atoms: _434  and  _435
REMARK  183  A    between atoms: _434  and  _437
REMARK  184  A    between atoms: _437  and  _438
REMARK  185  A    between atoms: _440  and  _442
REMARK  186  A    between atoms: _442  and  _443
REMARK  187  A    between atoms: _442  and  _445
REMARK  188  A    between atoms: _445  and  _446
REMARK  189  A    between atoms: _456  and  _458
REMARK  190  A    between atoms: _458  and  _459
REMARK  191  A    between atoms: _461  and  _463
REMARK  192  A    between atoms: _463  and  _464
REMARK  193  A    between atoms: _463  and  _466
REMARK  194  A    between atoms: _466  and  _467
REMARK  195  A    between atoms: _467  and  _468
REMARK  196  A    between atoms: _471  and  _473
REMARK  197  A    between atoms: _473  and  _474
REMARK  198  A    between atoms: _476  and  _478
REMARK  199  A    between atoms: _478  and  _479
REMARK  200  A    between atoms: _478  and  _481
REMARK  201  A    between atoms: _481  and  _482
REMARK  202  A    between atoms: _483  and  _485
REMARK  203  A    between atoms: _485  and  _486
REMARK  204  A    between atoms: _489  and  _491
REMARK  205  A    between atoms: _491  and  _492
REMARK  206  A    between atoms: _491  and  _494
REMARK  207  A    between atoms: _494  and  _495
REMARK  208  A    between atoms: _495  and  _496
REMARK  209  A    between atoms: _501  and  _503
REMARK  210  A    between atoms: _503  and  _504
REMARK  211  A    between atoms: _503  and  _506
REMARK  212  A    between atoms: _506  and  _507
REMARK  213  A    between atoms: _507  and  _508
REMARK  214  A    between atoms: _508  and  _509
REMARK  215  A    between atoms: _519  and  _520
REMARK  216  A    between atoms: _525  and  _527
REMARK  217  A    between atoms: _527  and  _528
REMARK  218  A    between atoms: _530  and  _532
REMARK  219  A    between atoms: _532  and  _533
REMARK  220  A    between atoms: _532  and  _535
REMARK  221  A    between atoms: _538  and  _540
REMARK  222  A    between atoms: _540  and  _541
REMARK  223  A    between atoms: _540  and  _543
REMARK  224  A    between atoms: _543  and  _544
REMARK  225  A    between atoms: _549  and  _550
REMARK                            x       y       z     vdW  Elec       q    Type
REMARK                         _______ _______ _______ _____ _____    ______ ____
ROOT
ATOM      1  O   HOH     1      41.295 -29.434  30.086  0.00  0.00    +0.000 OA
ENDROOT
TORSDOF 0
REMARK  Name = ../refined-set-2016/4ty6/4ty6_pocket.pdb
REMARK  225 active torsions:
REMARK  status: ('A' for Active; 'I' for Inactive)
REMARK    1  A    between atoms: _1  and  _5
REMARK    2  A    between atoms: _5  and  _6
REMARK    3  A    between atoms: _5  and  _8
REMARK    4  A    between atoms: _8  and  _9
REMARK    5  A    between atoms: _12  and  _14
REMARK    6  A    between atoms: _14  and  _15
REMARK    7  A    between atoms: _14  and  _17
REMARK    8  A    between atoms: _20  and  _22
REMARK    9  A    between atoms: _22  and  _23
REMARK   10  A    between atoms: _22  and  _25
REMARK   11  A    between atoms: _25  and  _26
REMARK   12  A    between atoms: _29  and  _31
REMARK   13  A    between atoms: _31  and  _32
REMARK   14  A    between atoms: _31  and  _34
REMARK   15  A    between atoms: _34  and  _35
REMARK   16  A    between atoms: _38  and  _40
REMARK   17  A    between atoms: _40  and  _41
REMARK   18  A    between atoms: _40  and  _43
REMARK   19  A    between atoms: _43  and  _44
REMARK   20  A    between atoms: _49  and  _51
REMARK   21  A    between atoms: _51  and  _52
REMARK   22  A    between atoms: _51  and  _54
REMARK   23  A    between atoms: _54  and  _55
REMARK   24  A    between atoms: _58  and  _60
REMARK   25  A    between atoms: _60  and  _61
REMARK   26  A    between atoms: _60  and  _63
REMARK   27  A    between atoms: _63  and  _64
REMARK   28  A    between atoms: _67  and  _69
REMARK   29  A    between atoms: _69  and  _70
REMARK   30  A    between atoms: _69  and  _72
REMARK   31  A    between atoms: _72  and  _73
REMARK   32  A    between atoms: _73  and  _74
REMARK   33  A    between atoms: _79  and  _81
REMARK   34  A    between atoms: _81  and  _82
REMARK   35  A    between atoms: _81  and  _84
REMARK   36  A    between atoms: _84  and  _85
REMARK   37  A    between atoms: _85  and  _86
REMARK   38  A    between atoms: _86  and  _87
REMARK   39  A    between atoms: _96  and  _98
REMARK   40  A    between atoms: _98  and  _99
REMARK   41  A    between atoms: _98  and  _101
REMARK   42  A    between atoms: _101  and  _102
REMARK   43  A    between atoms: _107  and  _109
REMARK   44  A    between atoms: _109  and  _110
REMARK   45  A    between atoms: _109  and  _112
REMARK   46  A    between atoms: _112  and  _113
REMARK   47  A    between atoms: _116  and  _118
REMARK   48  A    between atoms: _118  and  _119
REMARK   49  A    between atoms: _118  and  _121
REMARK   50  A    between atoms: _121  and  _122
REMARK   51  A    between atoms: _122  and  _157
REMARK   52  A    between atoms: _123  and  _125
REMARK   53  A    between atoms: _125  and  _126
REMARK   54  A    between atoms: _128  and  _130
REMARK   55  A    between atoms: _130  and  _131
REMARK   56  A    between atoms: _134  and  _136
REMARK   57  A    between atoms: _136  and  _137
REMARK   58  A    between atoms: _140  and  _142
REMARK   59  A    between atoms: _142  and  _143
REMARK   60  A    between atoms: _142  and  _145
REMARK   61  A    between atoms: _145  and  _146
REMARK   62  A    between atoms: _151  and  _153
REMARK   63  A    between atoms: _153  and  _154
REMARK   64  A    between atoms: _153  and  _156
REMARK   65  A    between atoms: _156  and  _157
REMARK   66  A    between atoms: _158  and  _160
REMARK   67  A    between atoms: _160  and  _161
REMARK   68  A    between atoms: _160  and  _163
REMARK   69  A    between atoms: _163  and  _164
REMARK   70  A    between atoms: _170  and  _172
REMARK   71  A    between atoms: _172  and  _173
REMARK   72  A    between atoms: _172  and  _175
REMARK   73  A    between atoms: _175  and  _176
REMARK   74  A    between atoms: _181  and  _182
REMARK   75  A    between atoms: _184  and  _186
REMARK   76  A    between atoms: _186  and  _187
REMARK   77  A    between atoms: _186  and  _189
REMARK   78  A    between atoms: _192  and  _194
REMARK   79  A    between atoms: _194  and  _195
REMARK   80  A    between atoms: _194  and  _197
REMARK   81  A    between atoms: _197  and  _198
REMARK   82  A    between atoms: _198  and  _199
REMARK   83  A    between atoms: _204  and  _206
REMARK   84  A    between atoms: _206  and  _207
REMARK   85  A    between atoms: _210  and  _212
REMARK   86  A    between atoms: _212  and  _213
REMARK   87  A    between atoms: _212  and  _215
REMARK   88  A    between atoms: _215  and  _216
REMARK   89  A    between atoms: _219  and  _221
REMARK   90  A    between atoms: _221  and  _222
REMARK   91  A    between atoms: _221  and  _224
REMARK   92  A    between atoms: _227  and  _229
REMARK   93  A    between atoms: _229  and  _230
REMARK   94  A    between atoms: _229  and  _232
REMARK   95  A    between atoms: _232  and  _233
REMARK   96  A    between atoms: _243  and  _245
REMARK   97  A    between atoms: _245  and  _246
REMARK   98  A    between atoms: _248  and  _250
REMARK   99  A    between atoms: _250  and  _251
REMARK  100  A    between atoms: _250  and  _253
REMARK  101  A    between atoms: _253  and  _254
REMARK  102  A    between atoms: _259  and  _260
REMARK  103  A    between atoms: _262  and  _264
REMARK  104  A    between atoms: _264  and  _265
REMARK  105  A    between atoms: _264  and  _267
REMARK  106  A    between atoms: _267  and  _268
REMARK  107  A    between atoms: _271  and  _273
REMARK  108  A    between atoms: _273  and  _274
REMARK  109  A    between atoms: _273  and  _276
REMARK  110  A    between atoms: _276  and  _277
REMARK  111  A    between atoms: _280  and  _282
REMARK  112  A    between atoms: _282  and  _283
REMARK  113  A    between atoms: _282  and  _285
REMARK  114  A    between atoms: _285  and  _286
REMARK  115  A    between atoms: _286  and  _287
REMARK  116  A    between atoms: _287  and  _288
REMARK  117  A    between atoms: _288  and  _289
REMARK  118  A    between atoms: _293  and  _295
REMARK  119  A    between atoms: _295  and  _296
REMARK  120  A    between atoms: _295  and  _298
REMARK  121  A    between atoms: _298  and  _299
REMARK  122  A    between atoms: _302  and  _304
REMARK  123  A    between atoms: _304  and  _305
REMARK  124  A    between atoms: _304  and  _307
REMARK  125  A    between atoms: _307  and  _308
REMARK  126  A    between atoms: _308  and  _309
REMARK  127  A    between atoms: _314  and  _316
REMARK  128  A    between atoms: _316  and  _317
REMARK  129  A    between atoms: _316  and  _319
REMARK  130  A    between atoms: _319  and  _320
REMARK  131  A    between atoms: _325  and  _326
REMARK  132  A    between atoms: _328  and  _330
REMARK  133  A    between atoms: _330  and  _331
REMARK  134  A    between atoms: _334  and  _336
REMARK  135  A    between atoms: _336  and  _337
REMARK  136  A    between atoms: _336  and  _339
REMARK  137  A    between atoms: _339  and  _340
REMARK  138  A    between atoms: _340  and  _341
REMARK  139  A    between atoms: _341  and  _342
REMARK  140  A    between atoms: _342  and  _343
REMARK  141  A    between atoms: _347  and  _349
REMARK  142  A    between atoms: _349  and  _350
REMARK  143  A    between atoms: _349  and  _352
REMARK  144  A    between atoms: _352  and  _353
REMARK  145  A    between atoms: _356  and  _358
REMARK  146  A    between atoms: _358  and  _359
REMARK  147  A    between atoms: _362  and  _364
REMARK  148  A    between atoms: _364  and  _365
REMARK  149  A    between atoms: _364  and  _367
REMARK  150  A    between atoms: _367  and  _368
REMARK  151  A    between atoms: _368  and  _482
REMARK  152  A    between atoms: _369  and  _371
REMARK  153  A    between atoms: _371  and  _372
REMARK  154  A    between atoms: _371  and  _374
REMARK  155  A    between atoms: _374  and  _375
REMARK  156  A    between atoms: _375  and  _376
REMARK  157  A    between atoms: _376  and  _377
REMARK  158  A    between atoms: _377  and  _378
REMARK  159  A    between atoms: _382  and  _384
REMARK  160  A    between atoms: _384  and  _385
REMARK  161  A    between atoms: _387  and  _389
REMARK  162  A    between atoms: _389  and  _390
REMARK  163  A    between atoms: _389  and  _392
REMARK  164  A    between atoms: _392  and  _393
REMARK  165  A    between atoms: _396  and  _398
REMARK  166  A    between atoms: _398  and  _399
REMARK  167  A    between atoms: _398  and  _401
REMARK  168  A    between atoms: _401  and  _402
REMARK  169  A    between atoms: _404  and  _406
REMARK  170  A    between atoms: _406  and  _407
REMARK  171  A    between atoms: _409  and  _411
REMARK  172  A    between atoms: _411  and  _412
REMARK  173  A    between atoms: _414  and  _416
REMARK  174  A    between atoms: _416  and  _417
REMARK  175  A    between atoms: _416  and  _419
REMARK  176  A    between atoms: _419  and  _420
REMARK  177  A    between atoms: _423  and  _425
REMARK  178  A    between atoms: _425  and  _426
REMARK  179  A    between atoms: _425  and  _428
REMARK  180  A    between atoms: _428  and  _429
REMARK  181  A    between atoms: _432  and  _434
REMARK  182  A    between atoms: _434  and  _435
REMARK  183  A    between atoms: _434  and  _437
REMARK  184  A    between atoms: _437  and  _438
REMARK  185  A    between atoms: _440  and  _442
REMARK  186  A    between atoms: _442  and  _443
REMARK  187  A    between atoms: _442  and  _445
REMARK  188  A    between atoms: _445  and  _446
REMARK  189  A    between atoms: _456  and  _458
REMARK  190  A    between atoms: _458  and  _459
REMARK  191  A    between atoms: _461  and  _463
REMARK  192  A    between atoms: _463  and  _464
REMARK  193  A    between atoms: _463  and  _466
REMARK  194  A    between atoms: _466  and  _467
REMARK  195  A    between atoms: _467  and  _468
REMARK  196  A    between atoms: _471  and  _473
REMARK  197  A    between atoms: _473  and  _474
REMARK  198  A    between atoms: _476  and  _478
REMARK  199  A    between atoms: _478  and  _479
REMARK  200  A    between atoms: _478  and  _481
REMARK  201  A    between atoms: _481  and  _482
REMARK  202  A    between atoms: _483  and  _485
REMARK  203  A    between atoms: _485  and  _486
REMARK  204  A    between atoms: _489  and  _491
REMARK  205  A    between atoms: _491  and  _492
REMARK  206  A    between atoms: _491  and  _494
REMARK  207  A    between atoms: _494  and  _495
REMARK  208  A    between atoms: _495  and  _496
REMARK  209  A    between atoms: _501  and  _503
REMARK  210  A    between atoms: _503  and  _504
REMARK  211  A    between atoms: _503  and  _506
REMARK  212  A    between atoms: _506  and  _507
REMARK  213  A    between atoms: _507  and  _508
REMARK  214  A    between atoms: _508  and  _509
REMARK  215  A    between atoms: _519  and  _520
REMARK  216  A    between atoms: _525  and  _527
REMARK  217  A    between atoms: _527  and  _528
REMARK  218  A    between atoms: _530  and  _532
REMARK  219  A    between atoms: _532  and  _533
REMARK  220  A    between atoms: _532  and  _535
REMARK  221  A    between atoms: _538  and  _540
REMARK  222  A    between atoms: _540  and  _541
REMARK  223  A    between atoms: _540  and  _543
REMARK  224  A    between atoms: _543  and  _544
REMARK  225  A    between atoms: _549  and  _550
REMARK                            x       y       z     vdW  Elec       q    Type
REMARK                         _______ _______ _______ _____ _____    ______ ____
ROOT
ATOM      1  O   HOH     1      35.585 -15.583  37.087  0.00  0.00    +0.000 OA
ENDROOT
TORSDOF 0
REMARK  Name = ../refined-set-2016/4ty6/4ty6_pocket.pdb
REMARK  225 active torsions:
REMARK  status: ('A' for Active; 'I' for Inactive)
REMARK    1  A    between atoms: _1  and  _5
REMARK    2  A    between atoms: _5  and  _6
REMARK    3  A    between atoms: _5  and  _8
REMARK    4  A    between atoms: _8  and  _9
REMARK    5  A    between atoms: _12  and  _14
REMARK    6  A    between atoms: _14  and  _15
REMARK    7  A    between atoms: _14  and  _17
REMARK    8  A    between atoms: _20  and  _22
REMARK    9  A    between atoms: _22  and  _23
REMARK   10  A    between atoms: _22  and  _25
REMARK   11  A    between atoms: _25  and  _26
REMARK   12  A    between atoms: _29  and  _31
REMARK   13  A    between atoms: _31  and  _32
REMARK   14  A    between atoms: _31  and  _34
REMARK   15  A    between atoms: _34  and  _35
REMARK   16  A    between atoms: _38  and  _40
REMARK   17  A    between atoms: _40  and  _41
REMARK   18  A    between atoms: _40  and  _43
REMARK   19  A    between atoms: _43  and  _44
REMARK   20  A    between atoms: _49  and  _51
REMARK   21  A    between atoms: _51  and  _52
REMARK   22  A    between atoms: _51  and  _54
REMARK   23  A    between atoms: _54  and  _55
REMARK   24  A    between atoms: _58  and  _60
REMARK   25  A    between atoms: _60  and  _61
REMARK   26  A    between atoms: _60  and  _63
REMARK   27  A    between atoms: _63  and  _64
REMARK   28  A    between atoms: _67  and  _69
REMARK   29  A    between atoms: _69  and  _70
REMARK   30  A    between atoms: _69  and  _72
REMARK   31  A    between atoms: _72  and  _73
REMARK   32  A    between atoms: _73  and  _74
REMARK   33  A    between atoms: _79  and  _81
REMARK   34  A    between atoms: _81  and  _82
REMARK   35  A    between atoms: _81  and  _84
REMARK   36  A    between atoms: _84  and  _85
REMARK   37  A    between atoms: _85  and  _86
REMARK   38  A    between atoms: _86  and  _87
REMARK   39  A    between atoms: _96  and  _98
REMARK   40  A    between atoms: _98  and  _99
REMARK   41  A    between atoms: _98  and  _101
REMARK   42  A    between atoms: _101  and  _102
REMARK   43  A    between atoms: _107  and  _109
REMARK   44  A    between atoms: _109  and  _110
REMARK   45  A    between atoms: _109  and  _112
REMARK   46  A    between atoms: _112  and  _113
REMARK   47  A    between atoms: _116  and  _118
REMARK   48  A    between atoms: _118  and  _119
REMARK   49  A    between atoms: _118  and  _121
REMARK   50  A    between atoms: _121  and  _122
REMARK   51  A    between atoms: _122  and  _157
REMARK   52  A    between atoms: _123  and  _125
REMARK   53  A    between atoms: _125  and  _126
REMARK   54  A    between atoms: _128  and  _130
REMARK   55  A    between atoms: _130  and  _131
REMARK   56  A    between atoms: _134  and  _136
REMARK   57  A    between atoms: _136  and  _137
REMARK   58  A    between atoms: _140  and  _142
REMARK   59  A    between atoms: _142  and  _143
REMARK   60  A    between atoms: _142  and  _145
REMARK   61  A    between atoms: _145  and  _146
REMARK   62  A    between atoms: _151  and  _153
REMARK   63  A    between atoms: _153  and  _154
REMARK   64  A    between atoms: _153  and  _156
REMARK   65  A    between atoms: _156  and  _157
REMARK   66  A    between atoms: _158  and  _160
REMARK   67  A    between atoms: _160  and  _161
REMARK   68  A    between atoms: _160  and  _163
REMARK   69  A    between atoms: _163  and  _164
REMARK   70  A    between atoms: _170  and  _172
REMARK   71  A    between atoms: _172  and  _173
REMARK   72  A    between atoms: _172  and  _175
REMARK   73  A    between atoms: _175  and  _176
REMARK   74  A    between atoms: _181  and  _182
REMARK   75  A    between atoms: _184  and  _186
REMARK   76  A    between atoms: _186  and  _187
REMARK   77  A    between atoms: _186  and  _189
REMARK   78  A    between atoms: _192  and  _194
REMARK   79  A    between atoms: _194  and  _195
REMARK   80  A    between atoms: _194  and  _197
REMARK   81  A    between atoms: _197  and  _198
REMARK   82  A    between atoms: _198  and  _199
REMARK   83  A    between atoms: _204  and  _206
REMARK   84  A    between atoms: _206  and  _207
REMARK   85  A    between atoms: _210  and  _212
REMARK   86  A    between atoms: _212  and  _213
REMARK   87  A    between atoms: _212  and  _215
REMARK   88  A    between atoms: _215  and  _216
REMARK   89  A    between atoms: _219  and  _221
REMARK   90  A    between atoms: _221  and  _222
REMARK   91  A    between atoms: _221  and  _224
REMARK   92  A    between atoms: _227  and  _229
REMARK   93  A    between atoms: _229  and  _230
REMARK   94  A    between atoms: _229  and  _232
REMARK   95  A    between atoms: _232  and  _233
REMARK   96  A    between atoms: _243  and  _245
REMARK   97  A    between atoms: _245  and  _246
REMARK   98  A    between atoms: _248  and  _250
REMARK   99  A    between atoms: _250  and  _251
REMARK  100  A    between atoms: _250  and  _253
REMARK  101  A    between atoms: _253  and  _254
REMARK  102  A    between atoms: _259  and  _260
REMARK  103  A    between atoms: _262  and  _264
REMARK  104  A    between atoms: _264  and  _265
REMARK  105  A    between atoms: _264  and  _267
REMARK  106  A    between atoms: _267  and  _268
REMARK  107  A    between atoms: _271  and  _273
REMARK  108  A    between atoms: _273  and  _274
REMARK  109  A    between atoms: _273  and  _276
REMARK  110  A    between atoms: _276  and  _277
REMARK  111  A    between atoms: _280  and  _282
REMARK  112  A    between atoms: _282  and  _283
REMARK  113  A    between atoms: _282  and  _285
REMARK  114  A    between atoms: _285  and  _286
REMARK  115  A    between atoms: _286  and  _287
REMARK  116  A    between atoms: _287  and  _288
REMARK  117  A    between atoms: _288  and  _289
REMARK  118  A    between atoms: _293  and  _295
REMARK  119  A    between atoms: _295  and  _296
REMARK  120  A    between atoms: _295  and  _298
REMARK  121  A    between atoms: _298  and  _299
REMARK  122  A    between atoms: _302  and  _304
REMARK  123  A    between atoms: _304  and  _305
REMARK  124  A    between atoms: _304  and  _307
REMARK  125  A    between atoms: _307  and  _308
REMARK  126  A    between atoms: _308  and  _309
REMARK  127  A    between atoms: _314  and  _316
REMARK  128  A    between atoms: _316  and  _317
REMARK  129  A    between atoms: _316  and  _319
REMARK  130  A    between atoms: _319  and  _320
REMARK  131  A    between atoms: _325  and  _326
REMARK  132  A    between atoms: _328  and  _330
REMARK  133  A    between atoms: _330  and  _331
REMARK  134  A    between atoms: _334  and  _336
REMARK  135  A    between atoms: _336  and  _337
REMARK  136  A    between atoms: _336  and  _339
REMARK  137  A    between atoms: _339  and  _340
REMARK  138  A    between atoms: _340  and  _341
REMARK  139  A    between atoms: _341  and  _342
REMARK  140  A    between atoms: _342  and  _343
REMARK  141  A    between atoms: _347  and  _349
REMARK  142  A    between atoms: _349  and  _350
REMARK  143  A    between atoms: _349  and  _352
REMARK  144  A    between atoms: _352  and  _353
REMARK  145  A    between atoms: _356  and  _358
REMARK  146  A    between atoms: _358  and  _359
REMARK  147  A    between atoms: _362  and  _364
REMARK  148  A    between atoms: _364  and  _365
REMARK  149  A    between atoms: _364  and  _367
REMARK  150  A    between atoms: _367  and  _368
REMARK  151  A    between atoms: _368  and  _482
REMARK  152  A    between atoms: _369  and  _371
REMARK  153  A    between atoms: _371  and  _372
REMARK  154  A    between atoms: _371  and  _374
REMARK  155  A    between atoms: _374  and  _375
REMARK  156  A    between atoms: _375  and  _376
REMARK  157  A    between atoms: _376  and  _377
REMARK  158  A    between atoms: _377  and  _378
REMARK  159  A    between atoms: _382  and  _384
REMARK  160  A    between atoms: _384  and  _385
REMARK  161  A    between atoms: _387  and  _389
REMARK  162  A    between atoms: _389  and  _390
REMARK  163  A    between atoms: _389  and  _392
REMARK  164  A    between atoms: _392  and  _393
REMARK  165  A    between atoms: _396  and  _398
REMARK  166  A    between atoms: _398  and  _399
REMARK  167  A    between atoms: _398  and  _401
REMARK  168  A    between atoms: _401  and  _402
REMARK  169  A    between atoms: _404  and  _406
REMARK  170  A    between atoms: _406  and  _407
REMARK  171  A    between atoms: _409  and  _411
REMARK  172  A    between atoms: _411  and  _412
REMARK  173  A    between atoms: _414  and  _416
REMARK  174  A    between atoms: _416  and  _417
REMARK  175  A    between atoms: _416  and  _419
REMARK  176  A    between atoms: _419  and  _420
REMARK  177  A    between atoms: _423  and  _425
REMARK  178  A    between atoms: _425  and  _426
REMARK  179  A    between atoms: _425  and  _428
REMARK  180  A    between atoms: _428  and  _429
REMARK  181  A    between atoms: _432  and  _434
REMARK  182  A    between atoms: _434  and  _435
REMARK  183  A    between atoms: _434  and  _437
REMARK  184  A    between atoms: _437  and  _438
REMARK  185  A    between atoms: _440  and  _442
REMARK  186  A    between atoms: _442  and  _443
REMARK  187  A    between atoms: _442  and  _445
REMARK  188  A    between atoms: _445  and  _446
REMARK  189  A    between atoms: _456  and  _458
REMARK  190  A    between atoms: _458  and  _459
REMARK  191  A    between atoms: _461  and  _463
REMARK  192  A    between atoms: _463  and  _464
REMARK  193  A    between atoms: _463  and  _466
REMARK  194  A    between atoms: _466  and  _467
REMARK  195  A    between atoms: _467  and  _468
REMARK  196  A    between atoms: _471  and  _473
REMARK  197  A    between atoms: _473  and  _474
REMARK  198  A    between atoms: _476  and  _478
REMARK  199  A    between atoms: _478  and  _479
REMARK  200  A    between atoms: _478  and  _481
REMARK  201  A    between atoms: _481  and  _482
REMARK  202  A    between atoms: _483  and  _485
REMARK  203  A    between atoms: _485  and  _486
REMARK  204  A    between atoms: _489  and  _491
REMARK  205  A    between atoms: _491  and  _492
REMARK  206  A    between atoms: _491  and  _494
REMARK  207  A    between atoms: _494  and  _495
REMARK  208  A    between atoms: _495  and  _496
REMARK  209  A    between atoms: _501  and  _503
REMARK  210  A    between atoms: _503  and  _504
REMARK  211  A    between atoms: _503  and  _506
REMARK  212  A    between atoms: _506  and  _507
REMARK  213  A    between atoms: _507  and  _508
REMARK  214  A    between atoms: _508  and  _509
REMARK  215  A    between atoms: _519  and  _520
REMARK  216  A    between atoms: _525  and  _527
REMARK  217  A    between atoms: _527  and  _528
REMARK  218  A    between atoms: _530  and  _532
REMARK  219  A    between atoms: _532  and  _533
REMARK  220  A    between atoms: _532  and  _535
REMARK  221  A    between atoms: _538  and  _540
REMARK  222  A    between atoms: _540  and  _541
REMARK  223  A    between atoms: _540  and  _543
REMARK  224  A    between atoms: _543  and  _544
REMARK  225  A    between atoms: _549  and  _550
REMARK                            x       y       z     vdW  Elec       q    Type
REMARK                         _______ _______ _______ _____ _____    ______ ____
ROOT
ATOM      1  O   HOH     1      33.355  -9.603  31.082  0.00  0.00    +0.000 OA
ENDROOT
TORSDOF 0
REMARK  Name = ../refined-set-2016/4ty6/4ty6_pocket.pdb
REMARK  225 active torsions:
REMARK  status: ('A' for Active; 'I' for Inactive)
REMARK    1  A    between atoms: _1  and  _5
REMARK    2  A    between atoms: _5  and  _6
REMARK    3  A    between atoms: _5  and  _8
REMARK    4  A    between atoms: _8  and  _9
REMARK    5  A    between atoms: _12  and  _14
REMARK    6  A    between atoms: _14  and  _15
REMARK    7  A    between atoms: _14  and  _17
REMARK    8  A    between atoms: _20  and  _22
REMARK    9  A    between atoms: _22  and  _23
REMARK   10  A    between atoms: _22  and  _25
REMARK   11  A    between atoms: _25  and  _26
REMARK   12  A    between atoms: _29  and  _31
REMARK   13  A    between atoms: _31  and  _32
REMARK   14  A    between atoms: _31  and  _34
REMARK   15  A    between atoms: _34  and  _35
REMARK   16  A    between atoms: _38  and  _40
REMARK   17  A    between atoms: _40  and  _41
REMARK   18  A    between atoms: _40  and  _43
REMARK   19  A    between atoms: _43  and  _44
REMARK   20  A    between atoms: _49  and  _51
REMARK   21  A    between atoms: _51  and  _52
REMARK   22  A    between atoms: _51  and  _54
REMARK   23  A    between atoms: _54  and  _55
REMARK   24  A    between atoms: _58  and  _60
REMARK   25  A    between atoms: _60  and  _61
REMARK   26  A    between atoms: _60  and  _63
REMARK   27  A    between atoms: _63  and  _64
REMARK   28  A    between atoms: _67  and  _69
REMARK   29  A    between atoms: _69  and  _70
REMARK   30  A    between atoms: _69  and  _72
REMARK   31  A    between atoms: _72  and  _73
REMARK   32  A    between atoms: _73  and  _74
REMARK   33  A    between atoms: _79  and  _81
REMARK   34  A    between atoms: _81  and  _82
REMARK   35  A    between atoms: _81  and  _84
REMARK   36  A    between atoms: _84  and  _85
REMARK   37  A    between atoms: _85  and  _86
REMARK   38  A    between atoms: _86  and  _87
REMARK   39  A    between atoms: _96  and  _98
REMARK   40  A    between atoms: _98  and  _99
REMARK   41  A    between atoms: _98  and  _101
REMARK   42  A    between atoms: _101  and  _102
REMARK   43  A    between atoms: _107  and  _109
REMARK   44  A    between atoms: _109  and  _110
REMARK   45  A    between atoms: _109  and  _112
REMARK   46  A    between atoms: _112  and  _113
REMARK   47  A    between atoms: _116  and  _118
REMARK   48  A    between atoms: _118  and  _119
REMARK   49  A    between atoms: _118  and  _121
REMARK   50  A    between atoms: _121  and  _122
REMARK   51  A    between atoms: _122  and  _157
REMARK   52  A    between atoms: _123  and  _125
REMARK   53  A    between atoms: _125  and  _126
REMARK   54  A    between atoms: _128  and  _130
REMARK   55  A    between atoms: _130  and  _131
REMARK   56  A    between atoms: _134  and  _136
REMARK   57  A    between atoms: _136  and  _137
REMARK   58  A    between atoms: _140  and  _142
REMARK   59  A    between atoms: _142  and  _143
REMARK   60  A    between atoms: _142  and  _145
REMARK   61  A    between atoms: _145  and  _146
REMARK   62  A    between atoms: _151  and  _153
REMARK   63  A    between atoms: _153  and  _154
REMARK   64  A    between atoms: _153  and  _156
REMARK   65  A    between atoms: _156  and  _157
REMARK   66  A    between atoms: _158  and  _160
REMARK   67  A    between atoms: _160  and  _161
REMARK   68  A    between atoms: _160  and  _163
REMARK   69  A    between atoms: _163  and  _164
REMARK   70  A    between atoms: _170  and  _172
REMARK   71  A    between atoms: _172  and  _173
REMARK   72  A    between atoms: _172  and  _175
REMARK   73  A    between atoms: _175  and  _176
REMARK   74  A    between atoms: _181  and  _182
REMARK   75  A    between atoms: _184  and  _186
REMARK   76  A    between atoms: _186  and  _187
REMARK   77  A    between atoms: _186  and  _189
REMARK   78  A    between atoms: _192  and  _194
REMARK   79  A    between atoms: _194  and  _195
REMARK   80  A    between atoms: _194  and  _197
REMARK   81  A    between atoms: _197  and  _198
REMARK   82  A    between atoms: _198  and  _199
REMARK   83  A    between atoms: _204  and  _206
REMARK   84  A    between atoms: _206  and  _207
REMARK   85  A    between atoms: _210  and  _212
REMARK   86  A    between atoms: _212  and  _213
REMARK   87  A    between atoms: _212  and  _215
REMARK   88  A    between atoms: _215  and  _216
REMARK   89  A    between atoms: _219  and  _221
REMARK   90  A    between atoms: _221  and  _222
REMARK   91  A    between atoms: _221  and  _224
REMARK   92  A    between atoms: _227  and  _229
REMARK   93  A    between atoms: _229  and  _230
REMARK   94  A    between atoms: _229  and  _232
REMARK   95  A    between atoms: _232  and  _233
REMARK   96  A    between atoms: _243  and  _245
REMARK   97  A    between atoms: _245  and  _246
REMARK   98  A    between atoms: _248  and  _250
REMARK   99  A    between atoms: _250  and  _251
REMARK  100  A    between atoms: _250  and  _253
REMARK  101  A    between atoms: _253  and  _254
REMARK  102  A    between atoms: _259  and  _260
REMARK  103  A    between atoms: _262  and  _264
REMARK  104  A    between atoms: _264  and  _265
REMARK  105  A    between atoms: _264  and  _267
REMARK  106  A    between atoms: _267  and  _268
REMARK  107  A    between atoms: _271  and  _273
REMARK  108  A    between atoms: _273  and  _274
REMARK  109  A    between atoms: _273  and  _276
REMARK  110  A    between atoms: _276  and  _277
REMARK  111  A    between atoms: _280  and  _282
REMARK  112  A    between atoms: _282  and  _283
REMARK  113  A    between atoms: _282  and  _285
REMARK  114  A    between atoms: _285  and  _286
REMARK  115  A    between atoms: _286  and  _287
REMARK  116  A    between atoms: _287  and  _288
REMARK  117  A    between atoms: _288  and  _289
REMARK  118  A    between atoms: _293  and  _295
REMARK  119  A    between atoms: _295  and  _296
REMARK  120  A    between atoms: _295  and  _298
REMARK  121  A    between atoms: _298  and  _299
REMARK  122  A    between atoms: _302  and  _304
REMARK  123  A    between atoms: _304  and  _305
REMARK  124  A    between atoms: _304  and  _307
REMARK  125  A    between atoms: _307  and  _308
REMARK  126  A    between atoms: _308  and  _309
REMARK  127  A    between atoms: _314  and  _316
REMARK  128  A    between atoms: _316  and  _317
REMARK  129  A    between atoms: _316  and  _319
REMARK  130  A    between atoms: _319  and  _320
REMARK  131  A    between atoms: _325  and  _326
REMARK  132  A    between atoms: _328  and  _330
REMARK  133  A    between atoms: _330  and  _331
REMARK  134  A    between atoms: _334  and  _336
REMARK  135  A    between atoms: _336  and  _337
REMARK  136  A    between atoms: _336  and  _339
REMARK  137  A    between atoms: _339  and  _340
REMARK  138  A    between atoms: _340  and  _341
REMARK  139  A    between atoms: _341  and  _342
REMARK  140  A    between atoms: _342  and  _343
REMARK  141  A    between atoms: _347  and  _349
REMARK  142  A    between atoms: _349  and  _350
REMARK  143  A    between atoms: _349  and  _352
REMARK  144  A    between atoms: _352  and  _353
REMARK  145  A    between atoms: _356  and  _358
REMARK  146  A    between atoms: _358  and  _359
REMARK  147  A    between atoms: _362  and  _364
REMARK  148  A    between atoms: _364  and  _365
REMARK  149  A    between atoms: _364  and  _367
REMARK  150  A    between atoms: _367  and  _368
REMARK  151  A    between atoms: _368  and  _482
REMARK  152  A    between atoms: _369  and  _371
REMARK  153  A    between atoms: _371  and  _372
REMARK  154  A    between atoms: _371  and  _374
REMARK  155  A    between atoms: _374  and  _375
REMARK  156  A    between atoms: _375  and  _376
REMARK  157  A    between atoms: _376  and  _377
REMARK  158  A    between atoms: _377  and  _378
REMARK  159  A    between atoms: _382  and  _384
REMARK  160  A    between atoms: _384  and  _385
REMARK  161  A    between atoms: _387  and  _389
REMARK  162  A    between atoms: _389  and  _390
REMARK  163  A    between atoms: _389  and  _392
REMARK  164  A    between atoms: _392  and  _393
REMARK  165  A    between atoms: _396  and  _398
REMARK  166  A    between atoms: _398  and  _399
REMARK  167  A    between atoms: _398  and  _401
REMARK  168  A    between atoms: _401  and  _402
REMARK  169  A    between atoms: _404  and  _406
REMARK  170  A    between atoms: _406  and  _407
REMARK  171  A    between atoms: _409  and  _411
REMARK  172  A    between atoms: _411  and  _412
REMARK  173  A    between atoms: _414  and  _416
REMARK  174  A    between atoms: _416  and  _417
REMARK  175  A    between atoms: _416  and  _419
REMARK  176  A    between atoms: _419  and  _420
REMARK  177  A    between atoms: _423  and  _425
REMARK  178  A    between atoms: _425  and  _426
REMARK  179  A    between atoms: _425  and  _428
REMARK  180  A    between atoms: _428  and  _429
REMARK  181  A    between atoms: _432  and  _434
REMARK  182  A    between atoms: _434  and  _435
REMARK  183  A    between atoms: _434  and  _437
REMARK  184  A    between atoms: _437  and  _438
REMARK  185  A    between atoms: _440  and  _442
REMARK  186  A    between atoms: _442  and  _443
REMARK  187  A    between atoms: _442  and  _445
REMARK  188  A    between atoms: _445  and  _446
REMARK  189  A    between atoms: _456  and  _458
REMARK  190  A    between atoms: _458  and  _459
REMARK  191  A    between atoms: _461  and  _463
REMARK  192  A    between atoms: _463  and  _464
REMARK  193  A    between atoms: _463  and  _466
REMARK  194  A    between atoms: _466  and  _467
REMARK  195  A    between atoms: _467  and  _468
REMARK  196  A    between atoms: _471  and  _473
REMARK  197  A    between atoms: _473  and  _474
REMARK  198  A    between atoms: _476  and  _478
REMARK  199  A    between atoms: _478  and  _479
REMARK  200  A    between atoms: _478  and  _481
REMARK  201  A    between atoms: _481  and  _482
REMARK  202  A    between atoms: _483  and  _485
REMARK  203  A    between atoms: _485  and  _486
REMARK  204  A    between atoms: _489  and  _491
REMARK  205  A    between atoms: _491  and  _492
REMARK  206  A    between atoms: _491  and  _494
REMARK  207  A    between atoms: _494  and  _495
REMARK  208  A    between atoms: _495  and  _496
REMARK  209  A    between atoms: _501  and  _503
REMARK  210  A    between atoms: _503  and  _504
REMARK  211  A    between atoms: _503  and  _506
REMARK  212  A    between atoms: _506  and  _507
REMARK  213  A    between atoms: _507  and  _508
REMARK  214  A    between atoms: _508  and  _509
REMARK  215  A    between atoms: _519  and  _520
REMARK  216  A    between atoms: _525  and  _527
REMARK  217  A    between atoms: _527  and  _528
REMARK  218  A    between atoms: _530  and  _532
REMARK  219  A    between atoms: _532  and  _533
REMARK  220  A    between atoms: _532  and  _535
REMARK  221  A    between atoms: _538  and  _540
REMARK  222  A    between atoms: _540  and  _541
REMARK  223  A    between atoms: _540  and  _543
REMARK  224  A    between atoms: _543  and  _544
REMARK  225  A    between atoms: _549  and  _550
REMARK                            x       y       z     vdW  Elec       q    Type
REMARK                         _______ _______ _______ _____ _____    ______ ____
ROOT
ATOM      1  O   HOH     1      38.391 -17.338  37.885  0.00  0.00    +0.000 OA
ENDROOT
TORSDOF 0
REMARK  Name = ../refined-set-2016/4ty6/4ty6_pocket.pdb
REMARK  225 active torsions:
REMARK  status: ('A' for Active; 'I' for Inactive)
REMARK    1  A    between atoms: _1  and  _5
REMARK    2  A    between atoms: _5  and  _6
REMARK    3  A    between atoms: _5  and  _8
REMARK    4  A    between atoms: _8  and  _9
REMARK    5  A    between atoms: _12  and  _14
REMARK    6  A    between atoms: _14  and  _15
REMARK    7  A    between atoms: _14  and  _17
REMARK    8  A    between atoms: _20  and  _22
REMARK    9  A    between atoms: _22  and  _23
REMARK   10  A    between atoms: _22  and  _25
REMARK   11  A    between atoms: _25  and  _26
REMARK   12  A    between atoms: _29  and  _31
REMARK   13  A    between atoms: _31  and  _32
REMARK   14  A    between atoms: _31  and  _34
REMARK   15  A    between atoms: _34  and  _35
REMARK   16  A    between atoms: _38  and  _40
REMARK   17  A    between atoms: _40  and  _41
REMARK   18  A    between atoms: _40  and  _43
REMARK   19  A    between atoms: _43  and  _44
REMARK   20  A    between atoms: _49  and  _51
REMARK   21  A    between atoms: _51  and  _52
REMARK   22  A    between atoms: _51  and  _54
REMARK   23  A    between atoms: _54  and  _55
REMARK   24  A    between atoms: _58  and  _60
REMARK   25  A    between atoms: _60  and  _61
REMARK   26  A    between atoms: _60  and  _63
REMARK   27  A    between atoms: _63  and  _64
REMARK   28  A    between atoms: _67  and  _69
REMARK   29  A    between atoms: _69  and  _70
REMARK   30  A    between atoms: _69  and  _72
REMARK   31  A    between atoms: _72  and  _73
REMARK   32  A    between atoms: _73  and  _74
REMARK   33  A    between atoms: _79  and  _81
REMARK   34  A    between atoms: _81  and  _82
REMARK   35  A    between atoms: _81  and  _84
REMARK   36  A    between atoms: _84  and  _85
REMARK   37  A    between atoms: _85  and  _86
REMARK   38  A    between atoms: _86  and  _87
REMARK   39  A    between atoms: _96  and  _98
REMARK   40  A    between atoms: _98  and  _99
REMARK   41  A    between atoms: _98  and  _101
REMARK   42  A    between atoms: _101  and  _102
REMARK   43  A    between atoms: _107  and  _109
REMARK   44  A    between atoms: _109  and  _110
REMARK   45  A    between atoms: _109  and  _112
REMARK   46  A    between atoms: _112  and  _113
REMARK   47  A    between atoms: _116  and  _118
REMARK   48  A    between atoms: _118  and  _119
REMARK   49  A    between atoms: _118  and  _121
REMARK   50  A    between atoms: _121  and  _122
REMARK   51  A    between atoms: _122  and  _157
REMARK   52  A    between atoms: _123  and  _125
REMARK   53  A    between atoms: _125  and  _126
REMARK   54  A    between atoms: _128  and  _130
REMARK   55  A    between atoms: _130  and  _131
REMARK   56  A    between atoms: _134  and  _136
REMARK   57  A    between atoms: _136  and  _137
REMARK   58  A    between atoms: _140  and  _142
REMARK   59  A    between atoms: _142  and  _143
REMARK   60  A    between atoms: _142  and  _145
REMARK   61  A    between atoms: _145  and  _146
REMARK   62  A    between atoms: _151  and  _153
REMARK   63  A    between atoms: _153  and  _154
REMARK   64  A    between atoms: _153  and  _156
REMARK   65  A    between atoms: _156  and  _157
REMARK   66  A    between atoms: _158  and  _160
REMARK   67  A    between atoms: _160  and  _161
REMARK   68  A    between atoms: _160  and  _163
REMARK   69  A    between atoms: _163  and  _164
REMARK   70  A    between atoms: _170  and  _172
REMARK   71  A    between atoms: _172  and  _173
REMARK   72  A    between atoms: _172  and  _175
REMARK   73  A    between atoms: _175  and  _176
REMARK   74  A    between atoms: _181  and  _182
REMARK   75  A    between atoms: _184  and  _186
REMARK   76  A    between atoms: _186  and  _187
REMARK   77  A    between atoms: _186  and  _189
REMARK   78  A    between atoms: _192  and  _194
REMARK   79  A    between atoms: _194  and  _195
REMARK   80  A    between atoms: _194  and  _197
REMARK   81  A    between atoms: _197  and  _198
REMARK   82  A    between atoms: _198  and  _199
REMARK   83  A    between atoms: _204  and  _206
REMARK   84  A    between atoms: _206  and  _207
REMARK   85  A    between atoms: _210  and  _212
REMARK   86  A    between atoms: _212  and  _213
REMARK   87  A    between atoms: _212  and  _215
REMARK   88  A    between atoms: _215  and  _216
REMARK   89  A    between atoms: _219  and  _221
REMARK   90  A    between atoms: _221  and  _222
REMARK   91  A    between atoms: _221  and  _224
REMARK   92  A    between atoms: _227  and  _229
REMARK   93  A    between atoms: _229  and  _230
REMARK   94  A    between atoms: _229  and  _232
REMARK   95  A    between atoms: _232  and  _233
REMARK   96  A    between atoms: _243  and  _245
REMARK   97  A    between atoms: _245  and  _246
REMARK   98  A    between atoms: _248  and  _250
REMARK   99  A    between atoms: _250  and  _251
REMARK  100  A    between atoms: _250  and  _253
REMARK  101  A    between atoms: _253  and  _254
REMARK  102  A    between atoms: _259  and  _260
REMARK  103  A    between atoms: _262  and  _264
REMARK  104  A    between atoms: _264  and  _265
REMARK  105  A    between atoms: _264  and  _267
REMARK  106  A    between atoms: _267  and  _268
REMARK  107  A    between atoms: _271  and  _273
REMARK  108  A    between atoms: _273  and  _274
REMARK  109  A    between atoms: _273  and  _276
REMARK  110  A    between atoms: _276  and  _277
REMARK  111  A    between atoms: _280  and  _282
REMARK  112  A    between atoms: _282  and  _283
REMARK  113  A    between atoms: _282  and  _285
REMARK  114  A    between atoms: _285  and  _286
REMARK  115  A    between atoms: _286  and  _287
REMARK  116  A    between atoms: _287  and  _288
REMARK  117  A    between atoms: _288  and  _289
REMARK  118  A    between atoms: _293  and  _295
REMARK  119  A    between atoms: _295  and  _296
REMARK  120  A    between atoms: _295  and  _298
REMARK  121  A    between atoms: _298  and  _299
REMARK  122  A    between atoms: _302  and  _304
REMARK  123  A    between atoms: _304  and  _305
REMARK  124  A    between atoms: _304  and  _307
REMARK  125  A    between atoms: _307  and  _308
REMARK  126  A    between atoms: _308  and  _309
REMARK  127  A    between atoms: _314  and  _316
REMARK  128  A    between atoms: _316  and  _317
REMARK  129  A    between atoms: _316  and  _319
REMARK  130  A    between atoms: _319  and  _320
REMARK  131  A    between atoms: _325  and  _326
REMARK  132  A    between atoms: _328  and  _330
REMARK  133  A    between atoms: _330  and  _331
REMARK  134  A    between atoms: _334  and  _336
REMARK  135  A    between atoms: _336  and  _337
REMARK  136  A    between atoms: _336  and  _339
REMARK  137  A    between atoms: _339  and  _340
REMARK  138  A    between atoms: _340  and  _341
REMARK  139  A    between atoms: _341  and  _342
REMARK  140  A    between atoms: _342  and  _343
REMARK  141  A    between atoms: _347  and  _349
REMARK  142  A    between atoms: _349  and  _350
REMARK  143  A    between atoms: _349  and  _352
REMARK  144  A    between atoms: _352  and  _353
REMARK  145  A    between atoms: _356  and  _358
REMARK  146  A    between atoms: _358  and  _359
REMARK  147  A    between atoms: _362  and  _364
REMARK  148  A    between atoms: _364  and  _365
REMARK  149  A    between atoms: _364  and  _367
REMARK  150  A    between atoms: _367  and  _368
REMARK  151  A    between atoms: _368  and  _482
REMARK  152  A    between atoms: _369  and  _371
REMARK  153  A    between atoms: _371  and  _372
REMARK  154  A    between atoms: _371  and  _374
REMARK  155  A    between atoms: _374  and  _375
REMARK  156  A    between atoms: _375  and  _376
REMARK  157  A    between atoms: _376  and  _377
REMARK  158  A    between atoms: _377  and  _378
REMARK  159  A    between atoms: _382  and  _384
REMARK  160  A    between atoms: _384  and  _385
REMARK  161  A    between atoms: _387  and  _389
REMARK  162  A    between atoms: _389  and  _390
REMARK  163  A    between atoms: _389  and  _392
REMARK  164  A    between atoms: _392  and  _393
REMARK  165  A    between atoms: _396  and  _398
REMARK  166  A    between atoms: _398  and  _399
REMARK  167  A    between atoms: _398  and  _401
REMARK  168  A    between atoms: _401  and  _402
REMARK  169  A    between atoms: _404  and  _406
REMARK  170  A    between atoms: _406  and  _407
REMARK  171  A    between atoms: _409  and  _411
REMARK  172  A    between atoms: _411  and  _412
REMARK  173  A    between atoms: _414  and  _416
REMARK  174  A    between atoms: _416  and  _417
REMARK  175  A    between atoms: _416  and  _419
REMARK  176  A    between atoms: _419  and  _420
REMARK  177  A    between atoms: _423  and  _425
REMARK  178  A    between atoms: _425  and  _426
REMARK  179  A    between atoms: _425  and  _428
REMARK  180  A    between atoms: _428  and  _429
REMARK  181  A    between atoms: _432  and  _434
REMARK  182  A    between atoms: _434  and  _435
REMARK  183  A    between atoms: _434  and  _437
REMARK  184  A    between atoms: _437  and  _438
REMARK  185  A    between atoms: _440  and  _442
REMARK  186  A    between atoms: _442  and  _443
REMARK  187  A    between atoms: _442  and  _445
REMARK  188  A    between atoms: _445  and  _446
REMARK  189  A    between atoms: _456  and  _458
REMARK  190  A    between atoms: _458  and  _459
REMARK  191  A    between atoms: _461  and  _463
REMARK  192  A    between atoms: _463  and  _464
REMARK  193  A    between atoms: _463  and  _466
REMARK  194  A    between atoms: _466  and  _467
REMARK  195  A    between atoms: _467  and  _468
REMARK  196  A    between atoms: _471  and  _473
REMARK  197  A    between atoms: _473  and  _474
REMARK  198  A    between atoms: _476  and  _478
REMARK  199  A    between atoms: _478  and  _479
REMARK  200  A    between atoms: _478  and  _481
REMARK  201  A    between atoms: _481  and  _482
REMARK  202  A    between atoms: _483  and  _485
REMARK  203  A    between atoms: _485  and  _486
REMARK  204  A    between atoms: _489  and  _491
REMARK  205  A    between atoms: _491  and  _492
REMARK  206  A    between atoms: _491  and  _494
REMARK  207  A    between atoms: _494  and  _495
REMARK  208  A    between atoms: _495  and  _496
REMARK  209  A    between atoms: _501  and  _503
REMARK  210  A    between atoms: _503  and  _504
REMARK  211  A    between atoms: _503  and  _506
REMARK  212  A    between atoms: _506  and  _507
REMARK  213  A    between atoms: _507  and  _508
REMARK  214  A    between atoms: _508  and  _509
REMARK  215  A    between atoms: _519  and  _520
REMARK  216  A    between atoms: _525  and  _527
REMARK  217  A    between atoms: _527  and  _528
REMARK  218  A    between atoms: _530  and  _532
REMARK  219  A    between atoms: _532  and  _533
REMARK  220  A    between atoms: _532  and  _535
REMARK  221  A    between atoms: _538  and  _540
REMARK  222  A    between atoms: _540  and  _541
REMARK  223  A    between atoms: _540  and  _543
REMARK  224  A    between atoms: _543  and  _544
REMARK  225  A    between atoms: _549  and  _550
REMARK                            x       y       z     vdW  Elec       q    Type
REMARK                         _______ _______ _______ _____ _____    ______ ____
ROOT
ATOM      1  O   HOH     1      36.736 -17.939  24.699  0.00  0.00    +0.000 OA
ENDROOT
TORSDOF 0
REMARK  Name = ../refined-set-2016/4ty6/4ty6_pocket.pdb
REMARK  225 active torsions:
REMARK  status: ('A' for Active; 'I' for Inactive)
REMARK    1  A    between atoms: _1  and  _5
REMARK    2  A    between atoms: _5  and  _6
REMARK    3  A    between atoms: _5  and  _8
REMARK    4  A    between atoms: _8  and  _9
REMARK    5  A    between atoms: _12  and  _14
REMARK    6  A    between atoms: _14  and  _15
REMARK    7  A    between atoms: _14  and  _17
REMARK    8  A    between atoms: _20  and  _22
REMARK    9  A    between atoms: _22  and  _23
REMARK   10  A    between atoms: _22  and  _25
REMARK   11  A    between atoms: _25  and  _26
REMARK   12  A    between atoms: _29  and  _31
REMARK   13  A    between atoms: _31  and  _32
REMARK   14  A    between atoms: _31  and  _34
REMARK   15  A    between atoms: _34  and  _35
REMARK   16  A    between atoms: _38  and  _40
REMARK   17  A    between atoms: _40  and  _41
REMARK   18  A    between atoms: _40  and  _43
REMARK   19  A    between atoms: _43  and  _44
REMARK   20  A    between atoms: _49  and  _51
REMARK   21  A    between atoms: _51  and  _52
REMARK   22  A    between atoms: _51  and  _54
REMARK   23  A    between atoms: _54  and  _55
REMARK   24  A    between atoms: _58  and  _60
REMARK   25  A    between atoms: _60  and  _61
REMARK   26  A    between atoms: _60  and  _63
REMARK   27  A    between atoms: _63  and  _64
REMARK   28  A    between atoms: _67  and  _69
REMARK   29  A    between atoms: _69  and  _70
REMARK   30  A    between atoms: _69  and  _72
REMARK   31  A    between atoms: _72  and  _73
REMARK   32  A    between atoms: _73  and  _74
REMARK   33  A    between atoms: _79  and  _81
REMARK   34  A    between atoms: _81  and  _82
REMARK   35  A    between atoms: _81  and  _84
REMARK   36  A    between atoms: _84  and  _85
REMARK   37  A    between atoms: _85  and  _86
REMARK   38  A    between atoms: _86  and  _87
REMARK   39  A    between atoms: _96  and  _98
REMARK   40  A    between atoms: _98  and  _99
REMARK   41  A    between atoms: _98  and  _101
REMARK   42  A    between atoms: _101  and  _102
REMARK   43  A    between atoms: _107  and  _109
REMARK   44  A    between atoms: _109  and  _110
REMARK   45  A    between atoms: _109  and  _112
REMARK   46  A    between atoms: _112  and  _113
REMARK   47  A    between atoms: _116  and  _118
REMARK   48  A    between atoms: _118  and  _119
REMARK   49  A    between atoms: _118  and  _121
REMARK   50  A    between atoms: _121  and  _122
REMARK   51  A    between atoms: _122  and  _157
REMARK   52  A    between atoms: _123  and  _125
REMARK   53  A    between atoms: _125  and  _126
REMARK   54  A    between atoms: _128  and  _130
REMARK   55  A    between atoms: _130  and  _131
REMARK   56  A    between atoms: _134  and  _136
REMARK   57  A    between atoms: _136  and  _137
REMARK   58  A    between atoms: _140  and  _142
REMARK   59  A    between atoms: _142  and  _143
REMARK   60  A    between atoms: _142  and  _145
REMARK   61  A    between atoms: _145  and  _146
REMARK   62  A    between atoms: _151  and  _153
REMARK   63  A    between atoms: _153  and  _154
REMARK   64  A    between atoms: _153  and  _156
REMARK   65  A    between atoms: _156  and  _157
REMARK   66  A    between atoms: _158  and  _160
REMARK   67  A    between atoms: _160  and  _161
REMARK   68  A    between atoms: _160  and  _163
REMARK   69  A    between atoms: _163  and  _164
REMARK   70  A    between atoms: _170  and  _172
REMARK   71  A    between atoms: _172  and  _173
REMARK   72  A    between atoms: _172  and  _175
REMARK   73  A    between atoms: _175  and  _176
REMARK   74  A    between atoms: _181  and  _182
REMARK   75  A    between atoms: _184  and  _186
REMARK   76  A    between atoms: _186  and  _187
REMARK   77  A    between atoms: _186  and  _189
REMARK   78  A    between atoms: _192  and  _194
REMARK   79  A    between atoms: _194  and  _195
REMARK   80  A    between atoms: _194  and  _197
REMARK   81  A    between atoms: _197  and  _198
REMARK   82  A    between atoms: _198  and  _199
REMARK   83  A    between atoms: _204  and  _206
REMARK   84  A    between atoms: _206  and  _207
REMARK   85  A    between atoms: _210  and  _212
REMARK   86  A    between atoms: _212  and  _213
REMARK   87  A    between atoms: _212  and  _215
REMARK   88  A    between atoms: _215  and  _216
REMARK   89  A    between atoms: _219  and  _221
REMARK   90  A    between atoms: _221  and  _222
REMARK   91  A    between atoms: _221  and  _224
REMARK   92  A    between atoms: _227  and  _229
REMARK   93  A    between atoms: _229  and  _230
REMARK   94  A    between atoms: _229  and  _232
REMARK   95  A    between atoms: _232  and  _233
REMARK   96  A    between atoms: _243  and  _245
REMARK   97  A    between atoms: _245  and  _246
REMARK   98  A    between atoms: _248  and  _250
REMARK   99  A    between atoms: _250  and  _251
REMARK  100  A    between atoms: _250  and  _253
REMARK  101  A    between atoms: _253  and  _254
REMARK  102  A    between atoms: _259  and  _260
REMARK  103  A    between atoms: _262  and  _264
REMARK  104  A    between atoms: _264  and  _265
REMARK  105  A    between atoms: _264  and  _267
REMARK  106  A    between atoms: _267  and  _268
REMARK  107  A    between atoms: _271  and  _273
REMARK  108  A    between atoms: _273  and  _274
REMARK  109  A    between atoms: _273  and  _276
REMARK  110  A    between atoms: _276  and  _277
REMARK  111  A    between atoms: _280  and  _282
REMARK  112  A    between atoms: _282  and  _283
REMARK  113  A    between atoms: _282  and  _285
REMARK  114  A    between atoms: _285  and  _286
REMARK  115  A    between atoms: _286  and  _287
REMARK  116  A    between atoms: _287  and  _288
REMARK  117  A    between atoms: _288  and  _289
REMARK  118  A    between atoms: _293  and  _295
REMARK  119  A    between atoms: _295  and  _296
REMARK  120  A    between atoms: _295  and  _298
REMARK  121  A    between atoms: _298  and  _299
REMARK  122  A    between atoms: _302  and  _304
REMARK  123  A    between atoms: _304  and  _305
REMARK  124  A    between atoms: _304  and  _307
REMARK  125  A    between atoms: _307  and  _308
REMARK  126  A    between atoms: _308  and  _309
REMARK  127  A    between atoms: _314  and  _316
REMARK  128  A    between atoms: _316  and  _317
REMARK  129  A    between atoms: _316  and  _319
REMARK  130  A    between atoms: _319  and  _320
REMARK  131  A    between atoms: _325  and  _326
REMARK  132  A    between atoms: _328  and  _330
REMARK  133  A    between atoms: _330  and  _331
REMARK  134  A    between atoms: _334  and  _336
REMARK  135  A    between atoms: _336  and  _337
REMARK  136  A    between atoms: _336  and  _339
REMARK  137  A    between atoms: _339  and  _340
REMARK  138  A    between atoms: _340  and  _341
REMARK  139  A    between atoms: _341  and  _342
REMARK  140  A    between atoms: _342  and  _343
REMARK  141  A    between atoms: _347  and  _349
REMARK  142  A    between atoms: _349  and  _350
REMARK  143  A    between atoms: _349  and  _352
REMARK  144  A    between atoms: _352  and  _353
REMARK  145  A    between atoms: _356  and  _358
REMARK  146  A    between atoms: _358  and  _359
REMARK  147  A    between atoms: _362  and  _364
REMARK  148  A    between atoms: _364  and  _365
REMARK  149  A    between atoms: _364  and  _367
REMARK  150  A    between atoms: _367  and  _368
REMARK  151  A    between atoms: _368  and  _482
REMARK  152  A    between atoms: _369  and  _371
REMARK  153  A    between atoms: _371  and  _372
REMARK  154  A    between atoms: _371  and  _374
REMARK  155  A    between atoms: _374  and  _375
REMARK  156  A    between atoms: _375  and  _376
REMARK  157  A    between atoms: _376  and  _377
REMARK  158  A    between atoms: _377  and  _378
REMARK  159  A    between atoms: _382  and  _384
REMARK  160  A    between atoms: _384  and  _385
REMARK  161  A    between atoms: _387  and  _389
REMARK  162  A    between atoms: _389  and  _390
REMARK  163  A    between atoms: _389  and  _392
REMARK  164  A    between atoms: _392  and  _393
REMARK  165  A    between atoms: _396  and  _398
REMARK  166  A    between atoms: _398  and  _399
REMARK  167  A    between atoms: _398  and  _401
REMARK  168  A    between atoms: _401  and  _402
REMARK  169  A    between atoms: _404  and  _406
REMARK  170  A    between atoms: _406  and  _407
REMARK  171  A    between atoms: _409  and  _411
REMARK  172  A    between atoms: _411  and  _412
REMARK  173  A    between atoms: _414  and  _416
REMARK  174  A    between atoms: _416  and  _417
REMARK  175  A    between atoms: _416  and  _419
REMARK  176  A    between atoms: _419  and  _420
REMARK  177  A    between atoms: _423  and  _425
REMARK  178  A    between atoms: _425  and  _426
REMARK  179  A    between atoms: _425  and  _428
REMARK  180  A    between atoms: _428  and  _429
REMARK  181  A    between atoms: _432  and  _434
REMARK  182  A    between atoms: _434  and  _435
REMARK  183  A    between atoms: _434  and  _437
REMARK  184  A    between atoms: _437  and  _438
REMARK  185  A    between atoms: _440  and  _442
REMARK  186  A    between atoms: _442  and  _443
REMARK  187  A    between atoms: _442  and  _445
REMARK  188  A    between atoms: _445  and  _446
REMARK  189  A    between atoms: _456  and  _458
REMARK  190  A    between atoms: _458  and  _459
REMARK  191  A    between atoms: _461  and  _463
REMARK  192  A    between atoms: _463  and  _464
REMARK  193  A    between atoms: _463  and  _466
REMARK  194  A    between atoms: _466  and  _467
REMARK  195  A    between atoms: _467  and  _468
REMARK  196  A    between atoms: _471  and  _473
REMARK  197  A    between atoms: _473  and  _474
REMARK  198  A    between atoms: _476  and  _478
REMARK  199  A    between atoms: _478  and  _479
REMARK  200  A    between atoms: _478  and  _481
REMARK  201  A    between atoms: _481  and  _482
REMARK  202  A    between atoms: _483  and  _485
REMARK  203  A    between atoms: _485  and  _486
REMARK  204  A    between atoms: _489  and  _491
REMARK  205  A    between atoms: _491  and  _492
REMARK  206  A    between atoms: _491  and  _494
REMARK  207  A    between atoms: _494  and  _495
REMARK  208  A    between atoms: _495  and  _496
REMARK  209  A    between atoms: _501  and  _503
REMARK  210  A    between atoms: _503  and  _504
REMARK  211  A    between atoms: _503  and  _506
REMARK  212  A    between atoms: _506  and  _507
REMARK  213  A    between atoms: _507  and  _508
REMARK  214  A    between atoms: _508  and  _509
REMARK  215  A    between atoms: _519  and  _520
REMARK  216  A    between atoms: _525  and  _527
REMARK  217  A    between atoms: _527  and  _528
REMARK  218  A    between atoms: _530  and  _532
REMARK  219  A    between atoms: _532  and  _533
REMARK  220  A    between atoms: _532  and  _535
REMARK  221  A    between atoms: _538  and  _540
REMARK  222  A    between atoms: _540  and  _541
REMARK  223  A    between atoms: _540  and  _543
REMARK  224  A    between atoms: _543  and  _544
REMARK  225  A    between atoms: _549  and  _550
REMARK                            x       y       z     vdW  Elec       q    Type
REMARK                         _______ _______ _______ _____ _____    ______ ____
ROOT
ATOM      1  O   HOH     1      41.844  -9.717  22.623  0.00  0.00    +0.000 OA
ENDROOT
TORSDOF 0
REMARK  Name = ../refined-set-2016/4ty6/4ty6_pocket.pdb
REMARK  225 active torsions:
REMARK  status: ('A' for Active; 'I' for Inactive)
REMARK    1  A    between atoms: _1  and  _5
REMARK    2  A    between atoms: _5  and  _6
REMARK    3  A    between atoms: _5  and  _8
REMARK    4  A    between atoms: _8  and  _9
REMARK    5  A    between atoms: _12  and  _14
REMARK    6  A    between atoms: _14  and  _15
REMARK    7  A    between atoms: _14  and  _17
REMARK    8  A    between atoms: _20  and  _22
REMARK    9  A    between atoms: _22  and  _23
REMARK   10  A    between atoms: _22  and  _25
REMARK   11  A    between atoms: _25  and  _26
REMARK   12  A    between atoms: _29  and  _31
REMARK   13  A    between atoms: _31  and  _32
REMARK   14  A    between atoms: _31  and  _34
REMARK   15  A    between atoms: _34  and  _35
REMARK   16  A    between atoms: _38  and  _40
REMARK   17  A    between atoms: _40  and  _41
REMARK   18  A    between atoms: _40  and  _43
REMARK   19  A    between atoms: _43  and  _44
REMARK   20  A    between atoms: _49  and  _51
REMARK   21  A    between atoms: _51  and  _52
REMARK   22  A    between atoms: _51  and  _54
REMARK   23  A    between atoms: _54  and  _55
REMARK   24  A    between atoms: _58  and  _60
REMARK   25  A    between atoms: _60  and  _61
REMARK   26  A    between atoms: _60  and  _63
REMARK   27  A    between atoms: _63  and  _64
REMARK   28  A    between atoms: _67  and  _69
REMARK   29  A    between atoms: _69  and  _70
REMARK   30  A    between atoms: _69  and  _72
REMARK   31  A    between atoms: _72  and  _73
REMARK   32  A    between atoms: _73  and  _74
REMARK   33  A    between atoms: _79  and  _81
REMARK   34  A    between atoms: _81  and  _82
REMARK   35  A    between atoms: _81  and  _84
REMARK   36  A    between atoms: _84  and  _85
REMARK   37  A    between atoms: _85  and  _86
REMARK   38  A    between atoms: _86  and  _87
REMARK   39  A    between atoms: _96  and  _98
REMARK   40  A    between atoms: _98  and  _99
REMARK   41  A    between atoms: _98  and  _101
REMARK   42  A    between atoms: _101  and  _102
REMARK   43  A    between atoms: _107  and  _109
REMARK   44  A    between atoms: _109  and  _110
REMARK   45  A    between atoms: _109  and  _112
REMARK   46  A    between atoms: _112  and  _113
REMARK   47  A    between atoms: _116  and  _118
REMARK   48  A    between atoms: _118  and  _119
REMARK   49  A    between atoms: _118  and  _121
REMARK   50  A    between atoms: _121  and  _122
REMARK   51  A    between atoms: _122  and  _157
REMARK   52  A    between atoms: _123  and  _125
REMARK   53  A    between atoms: _125  and  _126
REMARK   54  A    between atoms: _128  and  _130
REMARK   55  A    between atoms: _130  and  _131
REMARK   56  A    between atoms: _134  and  _136
REMARK   57  A    between atoms: _136  and  _137
REMARK   58  A    between atoms: _140  and  _142
REMARK   59  A    between atoms: _142  and  _143
REMARK   60  A    between atoms: _142  and  _145
REMARK   61  A    between atoms: _145  and  _146
REMARK   62  A    between atoms: _151  and  _153
REMARK   63  A    between atoms: _153  and  _154
REMARK   64  A    between atoms: _153  and  _156
REMARK   65  A    between atoms: _156  and  _157
REMARK   66  A    between atoms: _158  and  _160
REMARK   67  A    between atoms: _160  and  _161
REMARK   68  A    between atoms: _160  and  _163
REMARK   69  A    between atoms: _163  and  _164
REMARK   70  A    between atoms: _170  and  _172
REMARK   71  A    between atoms: _172  and  _173
REMARK   72  A    between atoms: _172  and  _175
REMARK   73  A    between atoms: _175  and  _176
REMARK   74  A    between atoms: _181  and  _182
REMARK   75  A    between atoms: _184  and  _186
REMARK   76  A    between atoms: _186  and  _187
REMARK   77  A    between atoms: _186  and  _189
REMARK   78  A    between atoms: _192  and  _194
REMARK   79  A    between atoms: _194  and  _195
REMARK   80  A    between atoms: _194  and  _197
REMARK   81  A    between atoms: _197  and  _198
REMARK   82  A    between atoms: _198  and  _199
REMARK   83  A    between atoms: _204  and  _206
REMARK   84  A    between atoms: _206  and  _207
REMARK   85  A    between atoms: _210  and  _212
REMARK   86  A    between atoms: _212  and  _213
REMARK   87  A    between atoms: _212  and  _215
REMARK   88  A    between atoms: _215  and  _216
REMARK   89  A    between atoms: _219  and  _221
REMARK   90  A    between atoms: _221  and  _222
REMARK   91  A    between atoms: _221  and  _224
REMARK   92  A    between atoms: _227  and  _229
REMARK   93  A    between atoms: _229  and  _230
REMARK   94  A    between atoms: _229  and  _232
REMARK   95  A    between atoms: _232  and  _233
REMARK   96  A    between atoms: _243  and  _245
REMARK   97  A    between atoms: _245  and  _246
REMARK   98  A    between atoms: _248  and  _250
REMARK   99  A    between atoms: _250  and  _251
REMARK  100  A    between atoms: _250  and  _253
REMARK  101  A    between atoms: _253  and  _254
REMARK  102  A    between atoms: _259  and  _260
REMARK  103  A    between atoms: _262  and  _264
REMARK  104  A    between atoms: _264  and  _265
REMARK  105  A    between atoms: _264  and  _267
REMARK  106  A    between atoms: _267  and  _268
REMARK  107  A    between atoms: _271  and  _273
REMARK  108  A    between atoms: _273  and  _274
REMARK  109  A    between atoms: _273  and  _276
REMARK  110  A    between atoms: _276  and  _277
REMARK  111  A    between atoms: _280  and  _282
REMARK  112  A    between atoms: _282  and  _283
REMARK  113  A    between atoms: _282  and  _285
REMARK  114  A    between atoms: _285  and  _286
REMARK  115  A    between atoms: _286  and  _287
REMARK  116  A    between atoms: _287  and  _288
REMARK  117  A    between atoms: _288  and  _289
REMARK  118  A    between atoms: _293  and  _295
REMARK  119  A    between atoms: _295  and  _296
REMARK  120  A    between atoms: _295  and  _298
REMARK  121  A    between atoms: _298  and  _299
REMARK  122  A    between atoms: _302  and  _304
REMARK  123  A    between atoms: _304  and  _305
REMARK  124  A    between atoms: _304  and  _307
REMARK  125  A    between atoms: _307  and  _308
REMARK  126  A    between atoms: _308  and  _309
REMARK  127  A    between atoms: _314  and  _316
REMARK  128  A    between atoms: _316  and  _317
REMARK  129  A    between atoms: _316  and  _319
REMARK  130  A    between atoms: _319  and  _320
REMARK  131  A    between atoms: _325  and  _326
REMARK  132  A    between atoms: _328  and  _330
REMARK  133  A    between atoms: _330  and  _331
REMARK  134  A    between atoms: _334  and  _336
REMARK  135  A    between atoms: _336  and  _337
REMARK  136  A    between atoms: _336  and  _339
REMARK  137  A    between atoms: _339  and  _340
REMARK  138  A    between atoms: _340  and  _341
REMARK  139  A    between atoms: _341  and  _342
REMARK  140  A    between atoms: _342  and  _343
REMARK  141  A    between atoms: _347  and  _349
REMARK  142  A    between atoms: _349  and  _350
REMARK  143  A    between atoms: _349  and  _352
REMARK  144  A    between atoms: _352  and  _353
REMARK  145  A    between atoms: _356  and  _358
REMARK  146  A    between atoms: _358  and  _359
REMARK  147  A    between atoms: _362  and  _364
REMARK  148  A    between atoms: _364  and  _365
REMARK  149  A    between atoms: _364  and  _367
REMARK  150  A    between atoms: _367  and  _368
REMARK  151  A    between atoms: _368  and  _482
REMARK  152  A    between atoms: _369  and  _371
REMARK  153  A    between atoms: _371  and  _372
REMARK  154  A    between atoms: _371  and  _374
REMARK  155  A    between atoms: _374  and  _375
REMARK  156  A    between atoms: _375  and  _376
REMARK  157  A    between atoms: _376  and  _377
REMARK  158  A    between atoms: _377  and  _378
REMARK  159  A    between atoms: _382  and  _384
REMARK  160  A    between atoms: _384  and  _385
REMARK  161  A    between atoms: _387  and  _389
REMARK  162  A    between atoms: _389  and  _390
REMARK  163  A    between atoms: _389  and  _392
REMARK  164  A    between atoms: _392  and  _393
REMARK  165  A    between atoms: _396  and  _398
REMARK  166  A    between atoms: _398  and  _399
REMARK  167  A    between atoms: _398  and  _401
REMARK  168  A    between atoms: _401  and  _402
REMARK  169  A    between atoms: _404  and  _406
REMARK  170  A    between atoms: _406  and  _407
REMARK  171  A    between atoms: _409  and  _411
REMARK  172  A    between atoms: _411  and  _412
REMARK  173  A    between atoms: _414  and  _416
REMARK  174  A    between atoms: _416  and  _417
REMARK  175  A    between atoms: _416  and  _419
REMARK  176  A    between atoms: _419  and  _420
REMARK  177  A    between atoms: _423  and  _425
REMARK  178  A    between atoms: _425  and  _426
REMARK  179  A    between atoms: _425  and  _428
REMARK  180  A    between atoms: _428  and  _429
REMARK  181  A    between atoms: _432  and  _434
REMARK  182  A    between atoms: _434  and  _435
REMARK  183  A    between atoms: _434  and  _437
REMARK  184  A    between atoms: _437  and  _438
REMARK  185  A    between atoms: _440  and  _442
REMARK  186  A    between atoms: _442  and  _443
REMARK  187  A    between atoms: _442  and  _445
REMARK  188  A    between atoms: _445  and  _446
REMARK  189  A    between atoms: _456  and  _458
REMARK  190  A    between atoms: _458  and  _459
REMARK  191  A    between atoms: _461  and  _463
REMARK  192  A    between atoms: _463  and  _464
REMARK  193  A    between atoms: _463  and  _466
REMARK  194  A    between atoms: _466  and  _467
REMARK  195  A    between atoms: _467  and  _468
REMARK  196  A    between atoms: _471  and  _473
REMARK  197  A    between atoms: _473  and  _474
REMARK  198  A    between atoms: _476  and  _478
REMARK  199  A    between atoms: _478  and  _479
REMARK  200  A    between atoms: _478  and  _481
REMARK  201  A    between atoms: _481  and  _482
REMARK  202  A    between atoms: _483  and  _485
REMARK  203  A    between atoms: _485  and  _486
REMARK  204  A    between atoms: _489  and  _491
REMARK  205  A    between atoms: _491  and  _492
REMARK  206  A    between atoms: _491  and  _494
REMARK  207  A    between atoms: _494  and  _495
REMARK  208  A    between atoms: _495  and  _496
REMARK  209  A    between atoms: _501  and  _503
REMARK  210  A    between atoms: _503  and  _504
REMARK  211  A    between atoms: _503  and  _506
REMARK  212  A    between atoms: _506  and  _507
REMARK  213  A    between atoms: _507  and  _508
REMARK  214  A    between atoms: _508  and  _509
REMARK  215  A    between atoms: _519  and  _520
REMARK  216  A    between atoms: _525  and  _527
REMARK  217  A    between atoms: _527  and  _528
REMARK  218  A    between atoms: _530  and  _532
REMARK  219  A    between atoms: _532  and  _533
REMARK  220  A    between atoms: _532  and  _535
REMARK  221  A    between atoms: _538  and  _540
REMARK  222  A    between atoms: _540  and  _541
REMARK  223  A    between atoms: _540  and  _543
REMARK  224  A    between atoms: _543  and  _544
REMARK  225  A    between atoms: _549  and  _550
REMARK                            x       y       z     vdW  Elec       q    Type
REMARK                         _______ _______ _______ _____ _____    ______ ____
ROOT
ATOM      1  O   HOH     1      34.984  -6.284  26.398  0.00  0.00    +0.000 OA
ENDROOT
TORSDOF 0
REMARK  Name = ../refined-set-2016/4ty6/4ty6_pocket.pdb
REMARK  225 active torsions:
REMARK  status: ('A' for Active; 'I' for Inactive)
REMARK    1  A    between atoms: _1  and  _5
REMARK    2  A    between atoms: _5  and  _6
REMARK    3  A    between atoms: _5  and  _8
REMARK    4  A    between atoms: _8  and  _9
REMARK    5  A    between atoms: _12  and  _14
REMARK    6  A    between atoms: _14  and  _15
REMARK    7  A    between atoms: _14  and  _17
REMARK    8  A    between atoms: _20  and  _22
REMARK    9  A    between atoms: _22  and  _23
REMARK   10  A    between atoms: _22  and  _25
REMARK   11  A    between atoms: _25  and  _26
REMARK   12  A    between atoms: _29  and  _31
REMARK   13  A    between atoms: _31  and  _32
REMARK   14  A    between atoms: _31  and  _34
REMARK   15  A    between atoms: _34  and  _35
REMARK   16  A    between atoms: _38  and  _40
REMARK   17  A    between atoms: _40  and  _41
REMARK   18  A    between atoms: _40  and  _43
REMARK   19  A    between atoms: _43  and  _44
REMARK   20  A    between atoms: _49  and  _51
REMARK   21  A    between atoms: _51  and  _52
REMARK   22  A    between atoms: _51  and  _54
REMARK   23  A    between atoms: _54  and  _55
REMARK   24  A    between atoms: _58  and  _60
REMARK   25  A    between atoms: _60  and  _61
REMARK   26  A    between atoms: _60  and  _63
REMARK   27  A    between atoms: _63  and  _64
REMARK   28  A    between atoms: _67  and  _69
REMARK   29  A    between atoms: _69  and  _70
REMARK   30  A    between atoms: _69  and  _72
REMARK   31  A    between atoms: _72  and  _73
REMARK   32  A    between atoms: _73  and  _74
REMARK   33  A    between atoms: _79  and  _81
REMARK   34  A    between atoms: _81  and  _82
REMARK   35  A    between atoms: _81  and  _84
REMARK   36  A    between atoms: _84  and  _85
REMARK   37  A    between atoms: _85  and  _86
REMARK   38  A    between atoms: _86  and  _87
REMARK   39  A    between atoms: _96  and  _98
REMARK   40  A    between atoms: _98  and  _99
REMARK   41  A    between atoms: _98  and  _101
REMARK   42  A    between atoms: _101  and  _102
REMARK   43  A    between atoms: _107  and  _109
REMARK   44  A    between atoms: _109  and  _110
REMARK   45  A    between atoms: _109  and  _112
REMARK   46  A    between atoms: _112  and  _113
REMARK   47  A    between atoms: _116  and  _118
REMARK   48  A    between atoms: _118  and  _119
REMARK   49  A    between atoms: _118  and  _121
REMARK   50  A    between atoms: _121  and  _122
REMARK   51  A    between atoms: _122  and  _157
REMARK   52  A    between atoms: _123  and  _125
REMARK   53  A    between atoms: _125  and  _126
REMARK   54  A    between atoms: _128  and  _130
REMARK   55  A    between atoms: _130  and  _131
REMARK   56  A    between atoms: _134  and  _136
REMARK   57  A    between atoms: _136  and  _137
REMARK   58  A    between atoms: _140  and  _142
REMARK   59  A    between atoms: _142  and  _143
REMARK   60  A    between atoms: _142  and  _145
REMARK   61  A    between atoms: _145  and  _146
REMARK   62  A    between atoms: _151  and  _153
REMARK   63  A    between atoms: _153  and  _154
REMARK   64  A    between atoms: _153  and  _156
REMARK   65  A    between atoms: _156  and  _157
REMARK   66  A    between atoms: _158  and  _160
REMARK   67  A    between atoms: _160  and  _161
REMARK   68  A    between atoms: _160  and  _163
REMARK   69  A    between atoms: _163  and  _164
REMARK   70  A    between atoms: _170  and  _172
REMARK   71  A    between atoms: _172  and  _173
REMARK   72  A    between atoms: _172  and  _175
REMARK   73  A    between atoms: _175  and  _176
REMARK   74  A    between atoms: _181  and  _182
REMARK   75  A    between atoms: _184  and  _186
REMARK   76  A    between atoms: _186  and  _187
REMARK   77  A    between atoms: _186  and  _189
REMARK   78  A    between atoms: _192  and  _194
REMARK   79  A    between atoms: _194  and  _195
REMARK   80  A    between atoms: _194  and  _197
REMARK   81  A    between atoms: _197  and  _198
REMARK   82  A    between atoms: _198  and  _199
REMARK   83  A    between atoms: _204  and  _206
REMARK   84  A    between atoms: _206  and  _207
REMARK   85  A    between atoms: _210  and  _212
REMARK   86  A    between atoms: _212  and  _213
REMARK   87  A    between atoms: _212  and  _215
REMARK   88  A    between atoms: _215  and  _216
REMARK   89  A    between atoms: _219  and  _221
REMARK   90  A    between atoms: _221  and  _222
REMARK   91  A    between atoms: _221  and  _224
REMARK   92  A    between atoms: _227  and  _229
REMARK   93  A    between atoms: _229  and  _230
REMARK   94  A    between atoms: _229  and  _232
REMARK   95  A    between atoms: _232  and  _233
REMARK   96  A    between atoms: _243  and  _245
REMARK   97  A    between atoms: _245  and  _246
REMARK   98  A    between atoms: _248  and  _250
REMARK   99  A    between atoms: _250  and  _251
REMARK  100  A    between atoms: _250  and  _253
REMARK  101  A    between atoms: _253  and  _254
REMARK  102  A    between atoms: _259  and  _260
REMARK  103  A    between atoms: _262  and  _264
REMARK  104  A    between atoms: _264  and  _265
REMARK  105  A    between atoms: _264  and  _267
REMARK  106  A    between atoms: _267  and  _268
REMARK  107  A    between atoms: _271  and  _273
REMARK  108  A    between atoms: _273  and  _274
REMARK  109  A    between atoms: _273  and  _276
REMARK  110  A    between atoms: _276  and  _277
REMARK  111  A    between atoms: _280  and  _282
REMARK  112  A    between atoms: _282  and  _283
REMARK  113  A    between atoms: _282  and  _285
REMARK  114  A    between atoms: _285  and  _286
REMARK  115  A    between atoms: _286  and  _287
REMARK  116  A    between atoms: _287  and  _288
REMARK  117  A    between atoms: _288  and  _289
REMARK  118  A    between atoms: _293  and  _295
REMARK  119  A    between atoms: _295  and  _296
REMARK  120  A    between atoms: _295  and  _298
REMARK  121  A    between atoms: _298  and  _299
REMARK  122  A    between atoms: _302  and  _304
REMARK  123  A    between atoms: _304  and  _305
REMARK  124  A    between atoms: _304  and  _307
REMARK  125  A    between atoms: _307  and  _308
REMARK  126  A    between atoms: _308  and  _309
REMARK  127  A    between atoms: _314  and  _316
REMARK  128  A    between atoms: _316  and  _317
REMARK  129  A    between atoms: _316  and  _319
REMARK  130  A    between atoms: _319  and  _320
REMARK  131  A    between atoms: _325  and  _326
REMARK  132  A    between atoms: _328  and  _330
REMARK  133  A    between atoms: _330  and  _331
REMARK  134  A    between atoms: _334  and  _336
REMARK  135  A    between atoms: _336  and  _337
REMARK  136  A    between atoms: _336  and  _339
REMARK  137  A    between atoms: _339  and  _340
REMARK  138  A    between atoms: _340  and  _341
REMARK  139  A    between atoms: _341  and  _342
REMARK  140  A    between atoms: _342  and  _343
REMARK  141  A    between atoms: _347  and  _349
REMARK  142  A    between atoms: _349  and  _350
REMARK  143  A    between atoms: _349  and  _352
REMARK  144  A    between atoms: _352  and  _353
REMARK  145  A    between atoms: _356  and  _358
REMARK  146  A    between atoms: _358  and  _359
REMARK  147  A    between atoms: _362  and  _364
REMARK  148  A    between atoms: _364  and  _365
REMARK  149  A    between atoms: _364  and  _367
REMARK  150  A    between atoms: _367  and  _368
REMARK  151  A    between atoms: _368  and  _482
REMARK  152  A    between atoms: _369  and  _371
REMARK  153  A    between atoms: _371  and  _372
REMARK  154  A    between atoms: _371  and  _374
REMARK  155  A    between atoms: _374  and  _375
REMARK  156  A    between atoms: _375  and  _376
REMARK  157  A    between atoms: _376  and  _377
REMARK  158  A    between atoms: _377  and  _378
REMARK  159  A    between atoms: _382  and  _384
REMARK  160  A    between atoms: _384  and  _385
REMARK  161  A    between atoms: _387  and  _389
REMARK  162  A    between atoms: _389  and  _390
REMARK  163  A    between atoms: _389  and  _392
REMARK  164  A    between atoms: _392  and  _393
REMARK  165  A    between atoms: _396  and  _398
REMARK  166  A    between atoms: _398  and  _399
REMARK  167  A    between atoms: _398  and  _401
REMARK  168  A    between atoms: _401  and  _402
REMARK  169  A    between atoms: _404  and  _406
REMARK  170  A    between atoms: _406  and  _407
REMARK  171  A    between atoms: _409  and  _411
REMARK  172  A    between atoms: _411  and  _412
REMARK  173  A    between atoms: _414  and  _416
REMARK  174  A    between atoms: _416  and  _417
REMARK  175  A    between atoms: _416  and  _419
REMARK  176  A    between atoms: _419  and  _420
REMARK  177  A    between atoms: _423  and  _425
REMARK  178  A    between atoms: _425  and  _426
REMARK  179  A    between atoms: _425  and  _428
REMARK  180  A    between atoms: _428  and  _429
REMARK  181  A    between atoms: _432  and  _434
REMARK  182  A    between atoms: _434  and  _435
REMARK  183  A    between atoms: _434  and  _437
REMARK  184  A    between atoms: _437  and  _438
REMARK  185  A    between atoms: _440  and  _442
REMARK  186  A    between atoms: _442  and  _443
REMARK  187  A    between atoms: _442  and  _445
REMARK  188  A    between atoms: _445  and  _446
REMARK  189  A    between atoms: _456  and  _458
REMARK  190  A    between atoms: _458  and  _459
REMARK  191  A    between atoms: _461  and  _463
REMARK  192  A    between atoms: _463  and  _464
REMARK  193  A    between atoms: _463  and  _466
REMARK  194  A    between atoms: _466  and  _467
REMARK  195  A    between atoms: _467  and  _468
REMARK  196  A    between atoms: _471  and  _473
REMARK  197  A    between atoms: _473  and  _474
REMARK  198  A    between atoms: _476  and  _478
REMARK  199  A    between atoms: _478  and  _479
REMARK  200  A    between atoms: _478  and  _481
REMARK  201  A    between atoms: _481  and  _482
REMARK  202  A    between atoms: _483  and  _485
REMARK  203  A    between atoms: _485  and  _486
REMARK  204  A    between atoms: _489  and  _491
REMARK  205  A    between atoms: _491  and  _492
REMARK  206  A    between atoms: _491  and  _494
REMARK  207  A    between atoms: _494  and  _495
REMARK  208  A    between atoms: _495  and  _496
REMARK  209  A    between atoms: _501  and  _503
REMARK  210  A    between atoms: _503  and  _504
REMARK  211  A    between atoms: _503  and  _506
REMARK  212  A    between atoms: _506  and  _507
REMARK  213  A    between atoms: _507  and  _508
REMARK  214  A    between atoms: _508  and  _509
REMARK  215  A    between atoms: _519  and  _520
REMARK  216  A    between atoms: _525  and  _527
REMARK  217  A    between atoms: _527  and  _528
REMARK  218  A    between atoms: _530  and  _532
REMARK  219  A    between atoms: _532  and  _533
REMARK  220  A    between atoms: _532  and  _535
REMARK  221  A    between atoms: _538  and  _540
REMARK  222  A    between atoms: _540  and  _541
REMARK  223  A    between atoms: _540  and  _543
REMARK  224  A    between atoms: _543  and  _544
REMARK  225  A    between atoms: _549  and  _550
REMARK                            x       y       z     vdW  Elec       q    Type
REMARK                         _______ _______ _______ _____ _____    ______ ____
ROOT
ATOM      1  O   HOH     1      49.824 -22.497  37.328  0.00  0.00    +0.000 OA
ENDROOT
TORSDOF 0
REMARK  Name = ../refined-set-2016/4ty6/4ty6_pocket.pdb
REMARK  225 active torsions:
REMARK  status: ('A' for Active; 'I' for Inactive)
REMARK    1  A    between atoms: _1  and  _5
REMARK    2  A    between atoms: _5  and  _6
REMARK    3  A    between atoms: _5  and  _8
REMARK    4  A    between atoms: _8  and  _9
REMARK    5  A    between atoms: _12  and  _14
REMARK    6  A    between atoms: _14  and  _15
REMARK    7  A    between atoms: _14  and  _17
REMARK    8  A    between atoms: _20  and  _22
REMARK    9  A    between atoms: _22  and  _23
REMARK   10  A    between atoms: _22  and  _25
REMARK   11  A    between atoms: _25  and  _26
REMARK   12  A    between atoms: _29  and  _31
REMARK   13  A    between atoms: _31  and  _32
REMARK   14  A    between atoms: _31  and  _34
REMARK   15  A    between atoms: _34  and  _35
REMARK   16  A    between atoms: _38  and  _40
REMARK   17  A    between atoms: _40  and  _41
REMARK   18  A    between atoms: _40  and  _43
REMARK   19  A    between atoms: _43  and  _44
REMARK   20  A    between atoms: _49  and  _51
REMARK   21  A    between atoms: _51  and  _52
REMARK   22  A    between atoms: _51  and  _54
REMARK   23  A    between atoms: _54  and  _55
REMARK   24  A    between atoms: _58  and  _60
REMARK   25  A    between atoms: _60  and  _61
REMARK   26  A    between atoms: _60  and  _63
REMARK   27  A    between atoms: _63  and  _64
REMARK   28  A    between atoms: _67  and  _69
REMARK   29  A    between atoms: _69  and  _70
REMARK   30  A    between atoms: _69  and  _72
REMARK   31  A    between atoms: _72  and  _73
REMARK   32  A    between atoms: _73  and  _74
REMARK   33  A    between atoms: _79  and  _81
REMARK   34  A    between atoms: _81  and  _82
REMARK   35  A    between atoms: _81  and  _84
REMARK   36  A    between atoms: _84  and  _85
REMARK   37  A    between atoms: _85  and  _86
REMARK   38  A    between atoms: _86  and  _87
REMARK   39  A    between atoms: _96  and  _98
REMARK   40  A    between atoms: _98  and  _99
REMARK   41  A    between atoms: _98  and  _101
REMARK   42  A    between atoms: _101  and  _102
REMARK   43  A    between atoms: _107  and  _109
REMARK   44  A    between atoms: _109  and  _110
REMARK   45  A    between atoms: _109  and  _112
REMARK   46  A    between atoms: _112  and  _113
REMARK   47  A    between atoms: _116  and  _118
REMARK   48  A    between atoms: _118  and  _119
REMARK   49  A    between atoms: _118  and  _121
REMARK   50  A    between atoms: _121  and  _122
REMARK   51  A    between atoms: _122  and  _157
REMARK   52  A    between atoms: _123  and  _125
REMARK   53  A    between atoms: _125  and  _126
REMARK   54  A    between atoms: _128  and  _130
REMARK   55  A    between atoms: _130  and  _131
REMARK   56  A    between atoms: _134  and  _136
REMARK   57  A    between atoms: _136  and  _137
REMARK   58  A    between atoms: _140  and  _142
REMARK   59  A    between atoms: _142  and  _143
REMARK   60  A    between atoms: _142  and  _145
REMARK   61  A    between atoms: _145  and  _146
REMARK   62  A    between atoms: _151  and  _153
REMARK   63  A    between atoms: _153  and  _154
REMARK   64  A    between atoms: _153  and  _156
REMARK   65  A    between atoms: _156  and  _157
REMARK   66  A    between atoms: _158  and  _160
REMARK   67  A    between atoms: _160  and  _161
REMARK   68  A    between atoms: _160  and  _163
REMARK   69  A    between atoms: _163  and  _164
REMARK   70  A    between atoms: _170  and  _172
REMARK   71  A    between atoms: _172  and  _173
REMARK   72  A    between atoms: _172  and  _175
REMARK   73  A    between atoms: _175  and  _176
REMARK   74  A    between atoms: _181  and  _182
REMARK   75  A    between atoms: _184  and  _186
REMARK   76  A    between atoms: _186  and  _187
REMARK   77  A    between atoms: _186  and  _189
REMARK   78  A    between atoms: _192  and  _194
REMARK   79  A    between atoms: _194  and  _195
REMARK   80  A    between atoms: _194  and  _197
REMARK   81  A    between atoms: _197  and  _198
REMARK   82  A    between atoms: _198  and  _199
REMARK   83  A    between atoms: _204  and  _206
REMARK   84  A    between atoms: _206  and  _207
REMARK   85  A    between atoms: _210  and  _212
REMARK   86  A    between atoms: _212  and  _213
REMARK   87  A    between atoms: _212  and  _215
REMARK   88  A    between atoms: _215  and  _216
REMARK   89  A    between atoms: _219  and  _221
REMARK   90  A    between atoms: _221  and  _222
REMARK   91  A    between atoms: _221  and  _224
REMARK   92  A    between atoms: _227  and  _229
REMARK   93  A    between atoms: _229  and  _230
REMARK   94  A    between atoms: _229  and  _232
REMARK   95  A    between atoms: _232  and  _233
REMARK   96  A    between atoms: _243  and  _245
REMARK   97  A    between atoms: _245  and  _246
REMARK   98  A    between atoms: _248  and  _250
REMARK   99  A    between atoms: _250  and  _251
REMARK  100  A    between atoms: _250  and  _253
REMARK  101  A    between atoms: _253  and  _254
REMARK  102  A    between atoms: _259  and  _260
REMARK  103  A    between atoms: _262  and  _264
REMARK  104  A    between atoms: _264  and  _265
REMARK  105  A    between atoms: _264  and  _267
REMARK  106  A    between atoms: _267  and  _268
REMARK  107  A    between atoms: _271  and  _273
REMARK  108  A    between atoms: _273  and  _274
REMARK  109  A    between atoms: _273  and  _276
REMARK  110  A    between atoms: _276  and  _277
REMARK  111  A    between atoms: _280  and  _282
REMARK  112  A    between atoms: _282  and  _283
REMARK  113  A    between atoms: _282  and  _285
REMARK  114  A    between atoms: _285  and  _286
REMARK  115  A    between atoms: _286  and  _287
REMARK  116  A    between atoms: _287  and  _288
REMARK  117  A    between atoms: _288  and  _289
REMARK  118  A    between atoms: _293  and  _295
REMARK  119  A    between atoms: _295  and  _296
REMARK  120  A    between atoms: _295  and  _298
REMARK  121  A    between atoms: _298  and  _299
REMARK  122  A    between atoms: _302  and  _304
REMARK  123  A    between atoms: _304  and  _305
REMARK  124  A    between atoms: _304  and  _307
REMARK  125  A    between atoms: _307  and  _308
REMARK  126  A    between atoms: _308  and  _309
REMARK  127  A    between atoms: _314  and  _316
REMARK  128  A    between atoms: _316  and  _317
REMARK  129  A    between atoms: _316  and  _319
REMARK  130  A    between atoms: _319  and  _320
REMARK  131  A    between atoms: _325  and  _326
REMARK  132  A    between atoms: _328  and  _330
REMARK  133  A    between atoms: _330  and  _331
REMARK  134  A    between atoms: _334  and  _336
REMARK  135  A    between atoms: _336  and  _337
REMARK  136  A    between atoms: _336  and  _339
REMARK  137  A    between atoms: _339  and  _340
REMARK  138  A    between atoms: _340  and  _341
REMARK  139  A    between atoms: _341  and  _342
REMARK  140  A    between atoms: _342  and  _343
REMARK  141  A    between atoms: _347  and  _349
REMARK  142  A    between atoms: _349  and  _350
REMARK  143  A    between atoms: _349  and  _352
REMARK  144  A    between atoms: _352  and  _353
REMARK  145  A    between atoms: _356  and  _358
REMARK  146  A    between atoms: _358  and  _359
REMARK  147  A    between atoms: _362  and  _364
REMARK  148  A    between atoms: _364  and  _365
REMARK  149  A    between atoms: _364  and  _367
REMARK  150  A    between atoms: _367  and  _368
REMARK  151  A    between atoms: _368  and  _482
REMARK  152  A    between atoms: _369  and  _371
REMARK  153  A    between atoms: _371  and  _372
REMARK  154  A    between atoms: _371  and  _374
REMARK  155  A    between atoms: _374  and  _375
REMARK  156  A    between atoms: _375  and  _376
REMARK  157  A    between atoms: _376  and  _377
REMARK  158  A    between atoms: _377  and  _378
REMARK  159  A    between atoms: _382  and  _384
REMARK  160  A    between atoms: _384  and  _385
REMARK  161  A    between atoms: _387  and  _389
REMARK  162  A    between atoms: _389  and  _390
REMARK  163  A    between atoms: _389  and  _392
REMARK  164  A    between atoms: _392  and  _393
REMARK  165  A    between atoms: _396  and  _398
REMARK  166  A    between atoms: _398  and  _399
REMARK  167  A    between atoms: _398  and  _401
REMARK  168  A    between atoms: _401  and  _402
REMARK  169  A    between atoms: _404  and  _406
REMARK  170  A    between atoms: _406  and  _407
REMARK  171  A    between atoms: _409  and  _411
REMARK  172  A    between atoms: _411  and  _412
REMARK  173  A    between atoms: _414  and  _416
REMARK  174  A    between atoms: _416  and  _417
REMARK  175  A    between atoms: _416  and  _419
REMARK  176  A    between atoms: _419  and  _420
REMARK  177  A    between atoms: _423  and  _425
REMARK  178  A    between atoms: _425  and  _426
REMARK  179  A    between atoms: _425  and  _428
REMARK  180  A    between atoms: _428  and  _429
REMARK  181  A    between atoms: _432  and  _434
REMARK  182  A    between atoms: _434  and  _435
REMARK  183  A    between atoms: _434  and  _437
REMARK  184  A    between atoms: _437  and  _438
REMARK  185  A    between atoms: _440  and  _442
REMARK  186  A    between atoms: _442  and  _443
REMARK  187  A    between atoms: _442  and  _445
REMARK  188  A    between atoms: _445  and  _446
REMARK  189  A    between atoms: _456  and  _458
REMARK  190  A    between atoms: _458  and  _459
REMARK  191  A    between atoms: _461  and  _463
REMARK  192  A    between atoms: _463  and  _464
REMARK  193  A    between atoms: _463  and  _466
REMARK  194  A    between atoms: _466  and  _467
REMARK  195  A    between atoms: _467  and  _468
REMARK  196  A    between atoms: _471  and  _473
REMARK  197  A    between atoms: _473  and  _474
REMARK  198  A    between atoms: _476  and  _478
REMARK  199  A    between atoms: _478  and  _479
REMARK  200  A    between atoms: _478  and  _481
REMARK  201  A    between atoms: _481  and  _482
REMARK  202  A    between atoms: _483  and  _485
REMARK  203  A    between atoms: _485  and  _486
REMARK  204  A    between atoms: _489  and  _491
REMARK  205  A    between atoms: _491  and  _492
REMARK  206  A    between atoms: _491  and  _494
REMARK  207  A    between atoms: _494  and  _495
REMARK  208  A    between atoms: _495  and  _496
REMARK  209  A    between atoms: _501  and  _503
REMARK  210  A    between atoms: _503  and  _504
REMARK  211  A    between atoms: _503  and  _506
REMARK  212  A    between atoms: _506  and  _507
REMARK  213  A    between atoms: _507  and  _508
REMARK  214  A    between atoms: _508  and  _509
REMARK  215  A    between atoms: _519  and  _520
REMARK  216  A    between atoms: _525  and  _527
REMARK  217  A    between atoms: _527  and  _528
REMARK  218  A    between atoms: _530  and  _532
REMARK  219  A    between atoms: _532  and  _533
REMARK  220  A    between atoms: _532  and  _535
REMARK  221  A    between atoms: _538  and  _540
REMARK  222  A    between atoms: _540  and  _541
REMARK  223  A    between atoms: _540  and  _543
REMARK  224  A    between atoms: _543  and  _544
REMARK  225  A    between atoms: _549  and  _550
REMARK                            x       y       z     vdW  Elec       q    Type
REMARK                         _______ _______ _______ _____ _____    ______ ____
ROOT
ATOM      1  O   HOH     1      47.196 -15.762  24.048  0.00  0.00    +0.000 OA
ENDROOT
TORSDOF 0
REMARK  Name = ../refined-set-2016/4ty6/4ty6_pocket.pdb
REMARK  225 active torsions:
REMARK  status: ('A' for Active; 'I' for Inactive)
REMARK    1  A    between atoms: _1  and  _5
REMARK    2  A    between atoms: _5  and  _6
REMARK    3  A    between atoms: _5  and  _8
REMARK    4  A    between atoms: _8  and  _9
REMARK    5  A    between atoms: _12  and  _14
REMARK    6  A    between atoms: _14  and  _15
REMARK    7  A    between atoms: _14  and  _17
REMARK    8  A    between atoms: _20  and  _22
REMARK    9  A    between atoms: _22  and  _23
REMARK   10  A    between atoms: _22  and  _25
REMARK   11  A    between atoms: _25  and  _26
REMARK   12  A    between atoms: _29  and  _31
REMARK   13  A    between atoms: _31  and  _32
REMARK   14  A    between atoms: _31  and  _34
REMARK   15  A    between atoms: _34  and  _35
REMARK   16  A    between atoms: _38  and  _40
REMARK   17  A    between atoms: _40  and  _41
REMARK   18  A    between atoms: _40  and  _43
REMARK   19  A    between atoms: _43  and  _44
REMARK   20  A    between atoms: _49  and  _51
REMARK   21  A    between atoms: _51  and  _52
REMARK   22  A    between atoms: _51  and  _54
REMARK   23  A    between atoms: _54  and  _55
REMARK   24  A    between atoms: _58  and  _60
REMARK   25  A    between atoms: _60  and  _61
REMARK   26  A    between atoms: _60  and  _63
REMARK   27  A    between atoms: _63  and  _64
REMARK   28  A    between atoms: _67  and  _69
REMARK   29  A    between atoms: _69  and  _70
REMARK   30  A    between atoms: _69  and  _72
REMARK   31  A    between atoms: _72  and  _73
REMARK   32  A    between atoms: _73  and  _74
REMARK   33  A    between atoms: _79  and  _81
REMARK   34  A    between atoms: _81  and  _82
REMARK   35  A    between atoms: _81  and  _84
REMARK   36  A    between atoms: _84  and  _85
REMARK   37  A    between atoms: _85  and  _86
REMARK   38  A    between atoms: _86  and  _87
REMARK   39  A    between atoms: _96  and  _98
REMARK   40  A    between atoms: _98  and  _99
REMARK   41  A    between atoms: _98  and  _101
REMARK   42  A    between atoms: _101  and  _102
REMARK   43  A    between atoms: _107  and  _109
REMARK   44  A    between atoms: _109  and  _110
REMARK   45  A    between atoms: _109  and  _112
REMARK   46  A    between atoms: _112  and  _113
REMARK   47  A    between atoms: _116  and  _118
REMARK   48  A    between atoms: _118  and  _119
REMARK   49  A    between atoms: _118  and  _121
REMARK   50  A    between atoms: _121  and  _122
REMARK   51  A    between atoms: _122  and  _157
REMARK   52  A    between atoms: _123  and  _125
REMARK   53  A    between atoms: _125  and  _126
REMARK   54  A    between atoms: _128  and  _130
REMARK   55  A    between atoms: _130  and  _131
REMARK   56  A    between atoms: _134  and  _136
REMARK   57  A    between atoms: _136  and  _137
REMARK   58  A    between atoms: _140  and  _142
REMARK   59  A    between atoms: _142  and  _143
REMARK   60  A    between atoms: _142  and  _145
REMARK   61  A    between atoms: _145  and  _146
REMARK   62  A    between atoms: _151  and  _153
REMARK   63  A    between atoms: _153  and  _154
REMARK   64  A    between atoms: _153  and  _156
REMARK   65  A    between atoms: _156  and  _157
REMARK   66  A    between atoms: _158  and  _160
REMARK   67  A    between atoms: _160  and  _161
REMARK   68  A    between atoms: _160  and  _163
REMARK   69  A    between atoms: _163  and  _164
REMARK   70  A    between atoms: _170  and  _172
REMARK   71  A    between atoms: _172  and  _173
REMARK   72  A    between atoms: _172  and  _175
REMARK   73  A    between atoms: _175  and  _176
REMARK   74  A    between atoms: _181  and  _182
REMARK   75  A    between atoms: _184  and  _186
REMARK   76  A    between atoms: _186  and  _187
REMARK   77  A    between atoms: _186  and  _189
REMARK   78  A    between atoms: _192  and  _194
REMARK   79  A    between atoms: _194  and  _195
REMARK   80  A    between atoms: _194  and  _197
REMARK   81  A    between atoms: _197  and  _198
REMARK   82  A    between atoms: _198  and  _199
REMARK   83  A    between atoms: _204  and  _206
REMARK   84  A    between atoms: _206  and  _207
REMARK   85  A    between atoms: _210  and  _212
REMARK   86  A    between atoms: _212  and  _213
REMARK   87  A    between atoms: _212  and  _215
REMARK   88  A    between atoms: _215  and  _216
REMARK   89  A    between atoms: _219  and  _221
REMARK   90  A    between atoms: _221  and  _222
REMARK   91  A    between atoms: _221  and  _224
REMARK   92  A    between atoms: _227  and  _229
REMARK   93  A    between atoms: _229  and  _230
REMARK   94  A    between atoms: _229  and  _232
REMARK   95  A    between atoms: _232  and  _233
REMARK   96  A    between atoms: _243  and  _245
REMARK   97  A    between atoms: _245  and  _246
REMARK   98  A    between atoms: _248  and  _250
REMARK   99  A    between atoms: _250  and  _251
REMARK  100  A    between atoms: _250  and  _253
REMARK  101  A    between atoms: _253  and  _254
REMARK  102  A    between atoms: _259  and  _260
REMARK  103  A    between atoms: _262  and  _264
REMARK  104  A    between atoms: _264  and  _265
REMARK  105  A    between atoms: _264  and  _267
REMARK  106  A    between atoms: _267  and  _268
REMARK  107  A    between atoms: _271  and  _273
REMARK  108  A    between atoms: _273  and  _274
REMARK  109  A    between atoms: _273  and  _276
REMARK  110  A    between atoms: _276  and  _277
REMARK  111  A    between atoms: _280  and  _282
REMARK  112  A    between atoms: _282  and  _283
REMARK  113  A    between atoms: _282  and  _285
REMARK  114  A    between atoms: _285  and  _286
REMARK  115  A    between atoms: _286  and  _287
REMARK  116  A    between atoms: _287  and  _288
REMARK  117  A    between atoms: _288  and  _289
REMARK  118  A    between atoms: _293  and  _295
REMARK  119  A    between atoms: _295  and  _296
REMARK  120  A    between atoms: _295  and  _298
REMARK  121  A    between atoms: _298  and  _299
REMARK  122  A    between atoms: _302  and  _304
REMARK  123  A    between atoms: _304  and  _305
REMARK  124  A    between atoms: _304  and  _307
REMARK  125  A    between atoms: _307  and  _308
REMARK  126  A    between atoms: _308  and  _309
REMARK  127  A    between atoms: _314  and  _316
REMARK  128  A    between atoms: _316  and  _317
REMARK  129  A    between atoms: _316  and  _319
REMARK  130  A    between atoms: _319  and  _320
REMARK  131  A    between atoms: _325  and  _326
REMARK  132  A    between atoms: _328  and  _330
REMARK  133  A    between atoms: _330  and  _331
REMARK  134  A    between atoms: _334  and  _336
REMARK  135  A    between atoms: _336  and  _337
REMARK  136  A    between atoms: _336  and  _339
REMARK  137  A    between atoms: _339  and  _340
REMARK  138  A    between atoms: _340  and  _341
REMARK  139  A    between atoms: _341  and  _342
REMARK  140  A    between atoms: _342  and  _343
REMARK  141  A    between atoms: _347  and  _349
REMARK  142  A    between atoms: _349  and  _350
REMARK  143  A    between atoms: _349  and  _352
REMARK  144  A    between atoms: _352  and  _353
REMARK  145  A    between atoms: _356  and  _358
REMARK  146  A    between atoms: _358  and  _359
REMARK  147  A    between atoms: _362  and  _364
REMARK  148  A    between atoms: _364  and  _365
REMARK  149  A    between atoms: _364  and  _367
REMARK  150  A    between atoms: _367  and  _368
REMARK  151  A    between atoms: _368  and  _482
REMARK  152  A    between atoms: _369  and  _371
REMARK  153  A    between atoms: _371  and  _372
REMARK  154  A    between atoms: _371  and  _374
REMARK  155  A    between atoms: _374  and  _375
REMARK  156  A    between atoms: _375  and  _376
REMARK  157  A    between atoms: _376  and  _377
REMARK  158  A    between atoms: _377  and  _378
REMARK  159  A    between atoms: _382  and  _384
REMARK  160  A    between atoms: _384  and  _385
REMARK  161  A    between atoms: _387  and  _389
REMARK  162  A    between atoms: _389  and  _390
REMARK  163  A    between atoms: _389  and  _392
REMARK  164  A    between atoms: _392  and  _393
REMARK  165  A    between atoms: _396  and  _398
REMARK  166  A    between atoms: _398  and  _399
REMARK  167  A    between atoms: _398  and  _401
REMARK  168  A    between atoms: _401  and  _402
REMARK  169  A    between atoms: _404  and  _406
REMARK  170  A    between atoms: _406  and  _407
REMARK  171  A    between atoms: _409  and  _411
REMARK  172  A    between atoms: _411  and  _412
REMARK  173  A    between atoms: _414  and  _416
REMARK  174  A    between atoms: _416  and  _417
REMARK  175  A    between atoms: _416  and  _419
REMARK  176  A    between atoms: _419  and  _420
REMARK  177  A    between atoms: _423  and  _425
REMARK  178  A    between atoms: _425  and  _426
REMARK  179  A    between atoms: _425  and  _428
REMARK  180  A    between atoms: _428  and  _429
REMARK  181  A    between atoms: _432  and  _434
REMARK  182  A    between atoms: _434  and  _435
REMARK  183  A    between atoms: _434  and  _437
REMARK  184  A    between atoms: _437  and  _438
REMARK  185  A    between atoms: _440  and  _442
REMARK  186  A    between atoms: _442  and  _443
REMARK  187  A    between atoms: _442  and  _445
REMARK  188  A    between atoms: _445  and  _446
REMARK  189  A    between atoms: _456  and  _458
REMARK  190  A    between atoms: _458  and  _459
REMARK  191  A    between atoms: _461  and  _463
REMARK  192  A    between atoms: _463  and  _464
REMARK  193  A    between atoms: _463  and  _466
REMARK  194  A    between atoms: _466  and  _467
REMARK  195  A    between atoms: _467  and  _468
REMARK  196  A    between atoms: _471  and  _473
REMARK  197  A    between atoms: _473  and  _474
REMARK  198  A    between atoms: _476  and  _478
REMARK  199  A    between atoms: _478  and  _479
REMARK  200  A    between atoms: _478  and  _481
REMARK  201  A    between atoms: _481  and  _482
REMARK  202  A    between atoms: _483  and  _485
REMARK  203  A    between atoms: _485  and  _486
REMARK  204  A    between atoms: _489  and  _491
REMARK  205  A    between atoms: _491  and  _492
REMARK  206  A    between atoms: _491  and  _494
REMARK  207  A    between atoms: _494  and  _495
REMARK  208  A    between atoms: _495  and  _496
REMARK  209  A    between atoms: _501  and  _503
REMARK  210  A    between atoms: _503  and  _504
REMARK  211  A    between atoms: _503  and  _506
REMARK  212  A    between atoms: _506  and  _507
REMARK  213  A    between atoms: _507  and  _508
REMARK  214  A    between atoms: _508  and  _509
REMARK  215  A    between atoms: _519  and  _520
REMARK  216  A    between atoms: _525  and  _527
REMARK  217  A    between atoms: _527  and  _528
REMARK  218  A    between atoms: _530  and  _532
REMARK  219  A    between atoms: _532  and  _533
REMARK  220  A    between atoms: _532  and  _535
REMARK  221  A    between atoms: _538  and  _540
REMARK  222  A    between atoms: _540  and  _541
REMARK  223  A    between atoms: _540  and  _543
REMARK  224  A    between atoms: _543  and  _544
REMARK  225  A    between atoms: _549  and  _550
REMARK                            x       y       z     vdW  Elec       q    Type
REMARK                         _______ _______ _______ _____ _____    ______ ____
ROOT
ATOM      1  O   HOH     1      33.407 -14.323  30.202  0.00  0.00    +0.000 OA
ENDROOT
TORSDOF 0
REMARK  Name = ../refined-set-2016/4ty6/4ty6_pocket.pdb
REMARK  225 active torsions:
REMARK  status: ('A' for Active; 'I' for Inactive)
REMARK    1  A    between atoms: _1  and  _5
REMARK    2  A    between atoms: _5  and  _6
REMARK    3  A    between atoms: _5  and  _8
REMARK    4  A    between atoms: _8  and  _9
REMARK    5  A    between atoms: _12  and  _14
REMARK    6  A    between atoms: _14  and  _15
REMARK    7  A    between atoms: _14  and  _17
REMARK    8  A    between atoms: _20  and  _22
REMARK    9  A    between atoms: _22  and  _23
REMARK   10  A    between atoms: _22  and  _25
REMARK   11  A    between atoms: _25  and  _26
REMARK   12  A    between atoms: _29  and  _31
REMARK   13  A    between atoms: _31  and  _32
REMARK   14  A    between atoms: _31  and  _34
REMARK   15  A    between atoms: _34  and  _35
REMARK   16  A    between atoms: _38  and  _40
REMARK   17  A    between atoms: _40  and  _41
REMARK   18  A    between atoms: _40  and  _43
REMARK   19  A    between atoms: _43  and  _44
REMARK   20  A    between atoms: _49  and  _51
REMARK   21  A    between atoms: _51  and  _52
REMARK   22  A    between atoms: _51  and  _54
REMARK   23  A    between atoms: _54  and  _55
REMARK   24  A    between atoms: _58  and  _60
REMARK   25  A    between atoms: _60  and  _61
REMARK   26  A    between atoms: _60  and  _63
REMARK   27  A    between atoms: _63  and  _64
REMARK   28  A    between atoms: _67  and  _69
REMARK   29  A    between atoms: _69  and  _70
REMARK   30  A    between atoms: _69  and  _72
REMARK   31  A    between atoms: _72  and  _73
REMARK   32  A    between atoms: _73  and  _74
REMARK   33  A    between atoms: _79  and  _81
REMARK   34  A    between atoms: _81  and  _82
REMARK   35  A    between atoms: _81  and  _84
REMARK   36  A    between atoms: _84  and  _85
REMARK   37  A    between atoms: _85  and  _86
REMARK   38  A    between atoms: _86  and  _87
REMARK   39  A    between atoms: _96  and  _98
REMARK   40  A    between atoms: _98  and  _99
REMARK   41  A    between atoms: _98  and  _101
REMARK   42  A    between atoms: _101  and  _102
REMARK   43  A    between atoms: _107  and  _109
REMARK   44  A    between atoms: _109  and  _110
REMARK   45  A    between atoms: _109  and  _112
REMARK   46  A    between atoms: _112  and  _113
REMARK   47  A    between atoms: _116  and  _118
REMARK   48  A    between atoms: _118  and  _119
REMARK   49  A    between atoms: _118  and  _121
REMARK   50  A    between atoms: _121  and  _122
REMARK   51  A    between atoms: _122  and  _157
REMARK   52  A    between atoms: _123  and  _125
REMARK   53  A    between atoms: _125  and  _126
REMARK   54  A    between atoms: _128  and  _130
REMARK   55  A    between atoms: _130  and  _131
REMARK   56  A    between atoms: _134  and  _136
REMARK   57  A    between atoms: _136  and  _137
REMARK   58  A    between atoms: _140  and  _142
REMARK   59  A    between atoms: _142  and  _143
REMARK   60  A    between atoms: _142  and  _145
REMARK   61  A    between atoms: _145  and  _146
REMARK   62  A    between atoms: _151  and  _153
REMARK   63  A    between atoms: _153  and  _154
REMARK   64  A    between atoms: _153  and  _156
REMARK   65  A    between atoms: _156  and  _157
REMARK   66  A    between atoms: _158  and  _160
REMARK   67  A    between atoms: _160  and  _161
REMARK   68  A    between atoms: _160  and  _163
REMARK   69  A    between atoms: _163  and  _164
REMARK   70  A    between atoms: _170  and  _172
REMARK   71  A    between atoms: _172  and  _173
REMARK   72  A    between atoms: _172  and  _175
REMARK   73  A    between atoms: _175  and  _176
REMARK   74  A    between atoms: _181  and  _182
REMARK   75  A    between atoms: _184  and  _186
REMARK   76  A    between atoms: _186  and  _187
REMARK   77  A    between atoms: _186  and  _189
REMARK   78  A    between atoms: _192  and  _194
REMARK   79  A    between atoms: _194  and  _195
REMARK   80  A    between atoms: _194  and  _197
REMARK   81  A    between atoms: _197  and  _198
REMARK   82  A    between atoms: _198  and  _199
REMARK   83  A    between atoms: _204  and  _206
REMARK   84  A    between atoms: _206  and  _207
REMARK   85  A    between atoms: _210  and  _212
REMARK   86  A    between atoms: _212  and  _213
REMARK   87  A    between atoms: _212  and  _215
REMARK   88  A    between atoms: _215  and  _216
REMARK   89  A    between atoms: _219  and  _221
REMARK   90  A    between atoms: _221  and  _222
REMARK   91  A    between atoms: _221  and  _224
REMARK   92  A    between atoms: _227  and  _229
REMARK   93  A    between atoms: _229  and  _230
REMARK   94  A    between atoms: _229  and  _232
REMARK   95  A    between atoms: _232  and  _233
REMARK   96  A    between atoms: _243  and  _245
REMARK   97  A    between atoms: _245  and  _246
REMARK   98  A    between atoms: _248  and  _250
REMARK   99  A    between atoms: _250  and  _251
REMARK  100  A    between atoms: _250  and  _253
REMARK  101  A    between atoms: _253  and  _254
REMARK  102  A    between atoms: _259  and  _260
REMARK  103  A    between atoms: _262  and  _264
REMARK  104  A    between atoms: _264  and  _265
REMARK  105  A    between atoms: _264  and  _267
REMARK  106  A    between atoms: _267  and  _268
REMARK  107  A    between atoms: _271  and  _273
REMARK  108  A    between atoms: _273  and  _274
REMARK  109  A    between atoms: _273  and  _276
REMARK  110  A    between atoms: _276  and  _277
REMARK  111  A    between atoms: _280  and  _282
REMARK  112  A    between atoms: _282  and  _283
REMARK  113  A    between atoms: _282  and  _285
REMARK  114  A    between atoms: _285  and  _286
REMARK  115  A    between atoms: _286  and  _287
REMARK  116  A    between atoms: _287  and  _288
REMARK  117  A    between atoms: _288  and  _289
REMARK  118  A    between atoms: _293  and  _295
REMARK  119  A    between atoms: _295  and  _296
REMARK  120  A    between atoms: _295  and  _298
REMARK  121  A    between atoms: _298  and  _299
REMARK  122  A    between atoms: _302  and  _304
REMARK  123  A    between atoms: _304  and  _305
REMARK  124  A    between atoms: _304  and  _307
REMARK  125  A    between atoms: _307  and  _308
REMARK  126  A    between atoms: _308  and  _309
REMARK  127  A    between atoms: _314  and  _316
REMARK  128  A    between atoms: _316  and  _317
REMARK  129  A    between atoms: _316  and  _319
REMARK  130  A    between atoms: _319  and  _320
REMARK  131  A    between atoms: _325  and  _326
REMARK  132  A    between atoms: _328  and  _330
REMARK  133  A    between atoms: _330  and  _331
REMARK  134  A    between atoms: _334  and  _336
REMARK  135  A    between atoms: _336  and  _337
REMARK  136  A    between atoms: _336  and  _339
REMARK  137  A    between atoms: _339  and  _340
REMARK  138  A    between atoms: _340  and  _341
REMARK  139  A    between atoms: _341  and  _342
REMARK  140  A    between atoms: _342  and  _343
REMARK  141  A    between atoms: _347  and  _349
REMARK  142  A    between atoms: _349  and  _350
REMARK  143  A    between atoms: _349  and  _352
REMARK  144  A    between atoms: _352  and  _353
REMARK  145  A    between atoms: _356  and  _358
REMARK  146  A    between atoms: _358  and  _359
REMARK  147  A    between atoms: _362  and  _364
REMARK  148  A    between atoms: _364  and  _365
REMARK  149  A    between atoms: _364  and  _367
REMARK  150  A    between atoms: _367  and  _368
REMARK  151  A    between atoms: _368  and  _482
REMARK  152  A    between atoms: _369  and  _371
REMARK  153  A    between atoms: _371  and  _372
REMARK  154  A    between atoms: _371  and  _374
REMARK  155  A    between atoms: _374  and  _375
REMARK  156  A    between atoms: _375  and  _376
REMARK  157  A    between atoms: _376  and  _377
REMARK  158  A    between atoms: _377  and  _378
REMARK  159  A    between atoms: _382  and  _384
REMARK  160  A    between atoms: _384  and  _385
REMARK  161  A    between atoms: _387  and  _389
REMARK  162  A    between atoms: _389  and  _390
REMARK  163  A    between atoms: _389  and  _392
REMARK  164  A    between atoms: _392  and  _393
REMARK  165  A    between atoms: _396  and  _398
REMARK  166  A    between atoms: _398  and  _399
REMARK  167  A    between atoms: _398  and  _401
REMARK  168  A    between atoms: _401  and  _402
REMARK  169  A    between atoms: _404  and  _406
REMARK  170  A    between atoms: _406  and  _407
REMARK  171  A    between atoms: _409  and  _411
REMARK  172  A    between atoms: _411  and  _412
REMARK  173  A    between atoms: _414  and  _416
REMARK  174  A    between atoms: _416  and  _417
REMARK  175  A    between atoms: _416  and  _419
REMARK  176  A    between atoms: _419  and  _420
REMARK  177  A    between atoms: _423  and  _425
REMARK  178  A    between atoms: _425  and  _426
REMARK  179  A    between atoms: _425  and  _428
REMARK  180  A    between atoms: _428  and  _429
REMARK  181  A    between atoms: _432  and  _434
REMARK  182  A    between atoms: _434  and  _435
REMARK  183  A    between atoms: _434  and  _437
REMARK  184  A    between atoms: _437  and  _438
REMARK  185  A    between atoms: _440  and  _442
REMARK  186  A    between atoms: _442  and  _443
REMARK  187  A    between atoms: _442  and  _445
REMARK  188  A    between atoms: _445  and  _446
REMARK  189  A    between atoms: _456  and  _458
REMARK  190  A    between atoms: _458  and  _459
REMARK  191  A    between atoms: _461  and  _463
REMARK  192  A    between atoms: _463  and  _464
REMARK  193  A    between atoms: _463  and  _466
REMARK  194  A    between atoms: _466  and  _467
REMARK  195  A    between atoms: _467  and  _468
REMARK  196  A    between atoms: _471  and  _473
REMARK  197  A    between atoms: _473  and  _474
REMARK  198  A    between atoms: _476  and  _478
REMARK  199  A    between atoms: _478  and  _479
REMARK  200  A    between atoms: _478  and  _481
REMARK  201  A    between atoms: _481  and  _482
REMARK  202  A    between atoms: _483  and  _485
REMARK  203  A    between atoms: _485  and  _486
REMARK  204  A    between atoms: _489  and  _491
REMARK  205  A    between atoms: _491  and  _492
REMARK  206  A    between atoms: _491  and  _494
REMARK  207  A    between atoms: _494  and  _495
REMARK  208  A    between atoms: _495  and  _496
REMARK  209  A    between atoms: _501  and  _503
REMARK  210  A    between atoms: _503  and  _504
REMARK  211  A    between atoms: _503  and  _506
REMARK  212  A    between atoms: _506  and  _507
REMARK  213  A    between atoms: _507  and  _508
REMARK  214  A    between atoms: _508  and  _509
REMARK  215  A    between atoms: _519  and  _520
REMARK  216  A    between atoms: _525  and  _527
REMARK  217  A    between atoms: _527  and  _528
REMARK  218  A    between atoms: _530  and  _532
REMARK  219  A    between atoms: _532  and  _533
REMARK  220  A    between atoms: _532  and  _535
REMARK  221  A    between atoms: _538  and  _540
REMARK  222  A    between atoms: _540  and  _541
REMARK  223  A    between atoms: _540  and  _543
REMARK  224  A    between atoms: _543  and  _544
REMARK  225  A    between atoms: _549  and  _550
REMARK                            x       y       z     vdW  Elec       q    Type
REMARK                         _______ _______ _______ _____ _____    ______ ____
ROOT
ATOM      1  O   HOH     1      36.506 -20.312  26.625  0.00  0.00    +0.000 OA
ENDROOT
TORSDOF 0
REMARK  Name = ../refined-set-2016/4ty6/4ty6_pocket.pdb
REMARK  225 active torsions:
REMARK  status: ('A' for Active; 'I' for Inactive)
REMARK    1  A    between atoms: _1  and  _5
REMARK    2  A    between atoms: _5  and  _6
REMARK    3  A    between atoms: _5  and  _8
REMARK    4  A    between atoms: _8  and  _9
REMARK    5  A    between atoms: _12  and  _14
REMARK    6  A    between atoms: _14  and  _15
REMARK    7  A    between atoms: _14  and  _17
REMARK    8  A    between atoms: _20  and  _22
REMARK    9  A    between atoms: _22  and  _23
REMARK   10  A    between atoms: _22  and  _25
REMARK   11  A    between atoms: _25  and  _26
REMARK   12  A    between atoms: _29  and  _31
REMARK   13  A    between atoms: _31  and  _32
REMARK   14  A    between atoms: _31  and  _34
REMARK   15  A    between atoms: _34  and  _35
REMARK   16  A    between atoms: _38  and  _40
REMARK   17  A    between atoms: _40  and  _41
REMARK   18  A    between atoms: _40  and  _43
REMARK   19  A    between atoms: _43  and  _44
REMARK   20  A    between atoms: _49  and  _51
REMARK   21  A    between atoms: _51  and  _52
REMARK   22  A    between atoms: _51  and  _54
REMARK   23  A    between atoms: _54  and  _55
REMARK   24  A    between atoms: _58  and  _60
REMARK   25  A    between atoms: _60  and  _61
REMARK   26  A    between atoms: _60  and  _63
REMARK   27  A    between atoms: _63  and  _64
REMARK   28  A    between atoms: _67  and  _69
REMARK   29  A    between atoms: _69  and  _70
REMARK   30  A    between atoms: _69  and  _72
REMARK   31  A    between atoms: _72  and  _73
REMARK   32  A    between atoms: _73  and  _74
REMARK   33  A    between atoms: _79  and  _81
REMARK   34  A    between atoms: _81  and  _82
REMARK   35  A    between atoms: _81  and  _84
REMARK   36  A    between atoms: _84  and  _85
REMARK   37  A    between atoms: _85  and  _86
REMARK   38  A    between atoms: _86  and  _87
REMARK   39  A    between atoms: _96  and  _98
REMARK   40  A    between atoms: _98  and  _99
REMARK   41  A    between atoms: _98  and  _101
REMARK   42  A    between atoms: _101  and  _102
REMARK   43  A    between atoms: _107  and  _109
REMARK   44  A    between atoms: _109  and  _110
REMARK   45  A    between atoms: _109  and  _112
REMARK   46  A    between atoms: _112  and  _113
REMARK   47  A    between atoms: _116  and  _118
REMARK   48  A    between atoms: _118  and  _119
REMARK   49  A    between atoms: _118  and  _121
REMARK   50  A    between atoms: _121  and  _122
REMARK   51  A    between atoms: _122  and  _157
REMARK   52  A    between atoms: _123  and  _125
REMARK   53  A    between atoms: _125  and  _126
REMARK   54  A    between atoms: _128  and  _130
REMARK   55  A    between atoms: _130  and  _131
REMARK   56  A    between atoms: _134  and  _136
REMARK   57  A    between atoms: _136  and  _137
REMARK   58  A    between atoms: _140  and  _142
REMARK   59  A    between atoms: _142  and  _143
REMARK   60  A    between atoms: _142  and  _145
REMARK   61  A    between atoms: _145  and  _146
REMARK   62  A    between atoms: _151  and  _153
REMARK   63  A    between atoms: _153  and  _154
REMARK   64  A    between atoms: _153  and  _156
REMARK   65  A    between atoms: _156  and  _157
REMARK   66  A    between atoms: _158  and  _160
REMARK   67  A    between atoms: _160  and  _161
REMARK   68  A    between atoms: _160  and  _163
REMARK   69  A    between atoms: _163  and  _164
REMARK   70  A    between atoms: _170  and  _172
REMARK   71  A    between atoms: _172  and  _173
REMARK   72  A    between atoms: _172  and  _175
REMARK   73  A    between atoms: _175  and  _176
REMARK   74  A    between atoms: _181  and  _182
REMARK   75  A    between atoms: _184  and  _186
REMARK   76  A    between atoms: _186  and  _187
REMARK   77  A    between atoms: _186  and  _189
REMARK   78  A    between atoms: _192  and  _194
REMARK   79  A    between atoms: _194  and  _195
REMARK   80  A    between atoms: _194  and  _197
REMARK   81  A    between atoms: _197  and  _198
REMARK   82  A    between atoms: _198  and  _199
REMARK   83  A    between atoms: _204  and  _206
REMARK   84  A    between atoms: _206  and  _207
REMARK   85  A    between atoms: _210  and  _212
REMARK   86  A    between atoms: _212  and  _213
REMARK   87  A    between atoms: _212  and  _215
REMARK   88  A    between atoms: _215  and  _216
REMARK   89  A    between atoms: _219  and  _221
REMARK   90  A    between atoms: _221  and  _222
REMARK   91  A    between atoms: _221  and  _224
REMARK   92  A    between atoms: _227  and  _229
REMARK   93  A    between atoms: _229  and  _230
REMARK   94  A    between atoms: _229  and  _232
REMARK   95  A    between atoms: _232  and  _233
REMARK   96  A    between atoms: _243  and  _245
REMARK   97  A    between atoms: _245  and  _246
REMARK   98  A    between atoms: _248  and  _250
REMARK   99  A    between atoms: _250  and  _251
REMARK  100  A    between atoms: _250  and  _253
REMARK  101  A    between atoms: _253  and  _254
REMARK  102  A    between atoms: _259  and  _260
REMARK  103  A    between atoms: _262  and  _264
REMARK  104  A    between atoms: _264  and  _265
REMARK  105  A    between atoms: _264  and  _267
REMARK  106  A    between atoms: _267  and  _268
REMARK  107  A    between atoms: _271  and  _273
REMARK  108  A    between atoms: _273  and  _274
REMARK  109  A    between atoms: _273  and  _276
REMARK  110  A    between atoms: _276  and  _277
REMARK  111  A    between atoms: _280  and  _282
REMARK  112  A    between atoms: _282  and  _283
REMARK  113  A    between atoms: _282  and  _285
REMARK  114  A    between atoms: _285  and  _286
REMARK  115  A    between atoms: _286  and  _287
REMARK  116  A    between atoms: _287  and  _288
REMARK  117  A    between atoms: _288  and  _289
REMARK  118  A    between atoms: _293  and  _295
REMARK  119  A    between atoms: _295  and  _296
REMARK  120  A    between atoms: _295  and  _298
REMARK  121  A    between atoms: _298  and  _299
REMARK  122  A    between atoms: _302  and  _304
REMARK  123  A    between atoms: _304  and  _305
REMARK  124  A    between atoms: _304  and  _307
REMARK  125  A    between atoms: _307  and  _308
REMARK  126  A    between atoms: _308  and  _309
REMARK  127  A    between atoms: _314  and  _316
REMARK  128  A    between atoms: _316  and  _317
REMARK  129  A    between atoms: _316  and  _319
REMARK  130  A    between atoms: _319  and  _320
REMARK  131  A    between atoms: _325  and  _326
REMARK  132  A    between atoms: _328  and  _330
REMARK  133  A    between atoms: _330  and  _331
REMARK  134  A    between atoms: _334  and  _336
REMARK  135  A    between atoms: _336  and  _337
REMARK  136  A    between atoms: _336  and  _339
REMARK  137  A    between atoms: _339  and  _340
REMARK  138  A    between atoms: _340  and  _341
REMARK  139  A    between atoms: _341  and  _342
REMARK  140  A    between atoms: _342  and  _343
REMARK  141  A    between atoms: _347  and  _349
REMARK  142  A    between atoms: _349  and  _350
REMARK  143  A    between atoms: _349  and  _352
REMARK  144  A    between atoms: _352  and  _353
REMARK  145  A    between atoms: _356  and  _358
REMARK  146  A    between atoms: _358  and  _359
REMARK  147  A    between atoms: _362  and  _364
REMARK  148  A    between atoms: _364  and  _365
REMARK  149  A    between atoms: _364  and  _367
REMARK  150  A    between atoms: _367  and  _368
REMARK  151  A    between atoms: _368  and  _482
REMARK  152  A    between atoms: _369  and  _371
REMARK  153  A    between atoms: _371  and  _372
REMARK  154  A    between atoms: _371  and  _374
REMARK  155  A    between atoms: _374  and  _375
REMARK  156  A    between atoms: _375  and  _376
REMARK  157  A    between atoms: _376  and  _377
REMARK  158  A    between atoms: _377  and  _378
REMARK  159  A    between atoms: _382  and  _384
REMARK  160  A    between atoms: _384  and  _385
REMARK  161  A    between atoms: _387  and  _389
REMARK  162  A    between atoms: _389  and  _390
REMARK  163  A    between atoms: _389  and  _392
REMARK  164  A    between atoms: _392  and  _393
REMARK  165  A    between atoms: _396  and  _398
REMARK  166  A    between atoms: _398  and  _399
REMARK  167  A    between atoms: _398  and  _401
REMARK  168  A    between atoms: _401  and  _402
REMARK  169  A    between atoms: _404  and  _406
REMARK  170  A    between atoms: _406  and  _407
REMARK  171  A    between atoms: _409  and  _411
REMARK  172  A    between atoms: _411  and  _412
REMARK  173  A    between atoms: _414  and  _416
REMARK  174  A    between atoms: _416  and  _417
REMARK  175  A    between atoms: _416  and  _419
REMARK  176  A    between atoms: _419  and  _420
REMARK  177  A    between atoms: _423  and  _425
REMARK  178  A    between atoms: _425  and  _426
REMARK  179  A    between atoms: _425  and  _428
REMARK  180  A    between atoms: _428  and  _429
REMARK  181  A    between atoms: _432  and  _434
REMARK  182  A    between atoms: _434  and  _435
REMARK  183  A    between atoms: _434  and  _437
REMARK  184  A    between atoms: _437  and  _438
REMARK  185  A    between atoms: _440  and  _442
REMARK  186  A    between atoms: _442  and  _443
REMARK  187  A    between atoms: _442  and  _445
REMARK  188  A    between atoms: _445  and  _446
REMARK  189  A    between atoms: _456  and  _458
REMARK  190  A    between atoms: _458  and  _459
REMARK  191  A    between atoms: _461  and  _463
REMARK  192  A    between atoms: _463  and  _464
REMARK  193  A    between atoms: _463  and  _466
REMARK  194  A    between atoms: _466  and  _467
REMARK  195  A    between atoms: _467  and  _468
REMARK  196  A    between atoms: _471  and  _473
REMARK  197  A    between atoms: _473  and  _474
REMARK  198  A    between atoms: _476  and  _478
REMARK  199  A    between atoms: _478  and  _479
REMARK  200  A    between atoms: _478  and  _481
REMARK  201  A    between atoms: _481  and  _482
REMARK  202  A    between atoms: _483  and  _485
REMARK  203  A    between atoms: _485  and  _486
REMARK  204  A    between atoms: _489  and  _491
REMARK  205  A    between atoms: _491  and  _492
REMARK  206  A    between atoms: _491  and  _494
REMARK  207  A    between atoms: _494  and  _495
REMARK  208  A    between atoms: _495  and  _496
REMARK  209  A    between atoms: _501  and  _503
REMARK  210  A    between atoms: _503  and  _504
REMARK  211  A    between atoms: _503  and  _506
REMARK  212  A    between atoms: _506  and  _507
REMARK  213  A    between atoms: _507  and  _508
REMARK  214  A    between atoms: _508  and  _509
REMARK  215  A    between atoms: _519  and  _520
REMARK  216  A    between atoms: _525  and  _527
REMARK  217  A    between atoms: _527  and  _528
REMARK  218  A    between atoms: _530  and  _532
REMARK  219  A    between atoms: _532  and  _533
REMARK  220  A    between atoms: _532  and  _535
REMARK  221  A    between atoms: _538  and  _540
REMARK  222  A    between atoms: _540  and  _541
REMARK  223  A    between atoms: _540  and  _543
REMARK  224  A    between atoms: _543  and  _544
REMARK  225  A    between atoms: _549  and  _550
REMARK                            x       y       z     vdW  Elec       q    Type
REMARK                         _______ _______ _______ _____ _____    ______ ____
ROOT
ATOM      1  O   HOH     1      50.734 -19.173  32.456  0.00  0.00    +0.000 OA
ENDROOT
TORSDOF 0
REMARK  Name = ../refined-set-2016/4ty6/4ty6_pocket.pdb
REMARK  225 active torsions:
REMARK  status: ('A' for Active; 'I' for Inactive)
REMARK    1  A    between atoms: _1  and  _5
REMARK    2  A    between atoms: _5  and  _6
REMARK    3  A    between atoms: _5  and  _8
REMARK    4  A    between atoms: _8  and  _9
REMARK    5  A    between atoms: _12  and  _14
REMARK    6  A    between atoms: _14  and  _15
REMARK    7  A    between atoms: _14  and  _17
REMARK    8  A    between atoms: _20  and  _22
REMARK    9  A    between atoms: _22  and  _23
REMARK   10  A    between atoms: _22  and  _25
REMARK   11  A    between atoms: _25  and  _26
REMARK   12  A    between atoms: _29  and  _31
REMARK   13  A    between atoms: _31  and  _32
REMARK   14  A    between atoms: _31  and  _34
REMARK   15  A    between atoms: _34  and  _35
REMARK   16  A    between atoms: _38  and  _40
REMARK   17  A    between atoms: _40  and  _41
REMARK   18  A    between atoms: _40  and  _43
REMARK   19  A    between atoms: _43  and  _44
REMARK   20  A    between atoms: _49  and  _51
REMARK   21  A    between atoms: _51  and  _52
REMARK   22  A    between atoms: _51  and  _54
REMARK   23  A    between atoms: _54  and  _55
REMARK   24  A    between atoms: _58  and  _60
REMARK   25  A    between atoms: _60  and  _61
REMARK   26  A    between atoms: _60  and  _63
REMARK   27  A    between atoms: _63  and  _64
REMARK   28  A    between atoms: _67  and  _69
REMARK   29  A    between atoms: _69  and  _70
REMARK   30  A    between atoms: _69  and  _72
REMARK   31  A    between atoms: _72  and  _73
REMARK   32  A    between atoms: _73  and  _74
REMARK   33  A    between atoms: _79  and  _81
REMARK   34  A    between atoms: _81  and  _82
REMARK   35  A    between atoms: _81  and  _84
REMARK   36  A    between atoms: _84  and  _85
REMARK   37  A    between atoms: _85  and  _86
REMARK   38  A    between atoms: _86  and  _87
REMARK   39  A    between atoms: _96  and  _98
REMARK   40  A    between atoms: _98  and  _99
REMARK   41  A    between atoms: _98  and  _101
REMARK   42  A    between atoms: _101  and  _102
REMARK   43  A    between atoms: _107  and  _109
REMARK   44  A    between atoms: _109  and  _110
REMARK   45  A    between atoms: _109  and  _112
REMARK   46  A    between atoms: _112  and  _113
REMARK   47  A    between atoms: _116  and  _118
REMARK   48  A    between atoms: _118  and  _119
REMARK   49  A    between atoms: _118  and  _121
REMARK   50  A    between atoms: _121  and  _122
REMARK   51  A    between atoms: _122  and  _157
REMARK   52  A    between atoms: _123  and  _125
REMARK   53  A    between atoms: _125  and  _126
REMARK   54  A    between atoms: _128  and  _130
REMARK   55  A    between atoms: _130  and  _131
REMARK   56  A    between atoms: _134  and  _136
REMARK   57  A    between atoms: _136  and  _137
REMARK   58  A    between atoms: _140  and  _142
REMARK   59  A    between atoms: _142  and  _143
REMARK   60  A    between atoms: _142  and  _145
REMARK   61  A    between atoms: _145  and  _146
REMARK   62  A    between atoms: _151  and  _153
REMARK   63  A    between atoms: _153  and  _154
REMARK   64  A    between atoms: _153  and  _156
REMARK   65  A    between atoms: _156  and  _157
REMARK   66  A    between atoms: _158  and  _160
REMARK   67  A    between atoms: _160  and  _161
REMARK   68  A    between atoms: _160  and  _163
REMARK   69  A    between atoms: _163  and  _164
REMARK   70  A    between atoms: _170  and  _172
REMARK   71  A    between atoms: _172  and  _173
REMARK   72  A    between atoms: _172  and  _175
REMARK   73  A    between atoms: _175  and  _176
REMARK   74  A    between atoms: _181  and  _182
REMARK   75  A    between atoms: _184  and  _186
REMARK   76  A    between atoms: _186  and  _187
REMARK   77  A    between atoms: _186  and  _189
REMARK   78  A    between atoms: _192  and  _194
REMARK   79  A    between atoms: _194  and  _195
REMARK   80  A    between atoms: _194  and  _197
REMARK   81  A    between atoms: _197  and  _198
REMARK   82  A    between atoms: _198  and  _199
REMARK   83  A    between atoms: _204  and  _206
REMARK   84  A    between atoms: _206  and  _207
REMARK   85  A    between atoms: _210  and  _212
REMARK   86  A    between atoms: _212  and  _213
REMARK   87  A    between atoms: _212  and  _215
REMARK   88  A    between atoms: _215  and  _216
REMARK   89  A    between atoms: _219  and  _221
REMARK   90  A    between atoms: _221  and  _222
REMARK   91  A    between atoms: _221  and  _224
REMARK   92  A    between atoms: _227  and  _229
REMARK   93  A    between atoms: _229  and  _230
REMARK   94  A    between atoms: _229  and  _232
REMARK   95  A    between atoms: _232  and  _233
REMARK   96  A    between atoms: _243  and  _245
REMARK   97  A    between atoms: _245  and  _246
REMARK   98  A    between atoms: _248  and  _250
REMARK   99  A    between atoms: _250  and  _251
REMARK  100  A    between atoms: _250  and  _253
REMARK  101  A    between atoms: _253  and  _254
REMARK  102  A    between atoms: _259  and  _260
REMARK  103  A    between atoms: _262  and  _264
REMARK  104  A    between atoms: _264  and  _265
REMARK  105  A    between atoms: _264  and  _267
REMARK  106  A    between atoms: _267  and  _268
REMARK  107  A    between atoms: _271  and  _273
REMARK  108  A    between atoms: _273  and  _274
REMARK  109  A    between atoms: _273  and  _276
REMARK  110  A    between atoms: _276  and  _277
REMARK  111  A    between atoms: _280  and  _282
REMARK  112  A    between atoms: _282  and  _283
REMARK  113  A    between atoms: _282  and  _285
REMARK  114  A    between atoms: _285  and  _286
REMARK  115  A    between atoms: _286  and  _287
REMARK  116  A    between atoms: _287  and  _288
REMARK  117  A    between atoms: _288  and  _289
REMARK  118  A    between atoms: _293  and  _295
REMARK  119  A    between atoms: _295  and  _296
REMARK  120  A    between atoms: _295  and  _298
REMARK  121  A    between atoms: _298  and  _299
REMARK  122  A    between atoms: _302  and  _304
REMARK  123  A    between atoms: _304  and  _305
REMARK  124  A    between atoms: _304  and  _307
REMARK  125  A    between atoms: _307  and  _308
REMARK  126  A    between atoms: _308  and  _309
REMARK  127  A    between atoms: _314  and  _316
REMARK  128  A    between atoms: _316  and  _317
REMARK  129  A    between atoms: _316  and  _319
REMARK  130  A    between atoms: _319  and  _320
REMARK  131  A    between atoms: _325  and  _326
REMARK  132  A    between atoms: _328  and  _330
REMARK  133  A    between atoms: _330  and  _331
REMARK  134  A    between atoms: _334  and  _336
REMARK  135  A    between atoms: _336  and  _337
REMARK  136  A    between atoms: _336  and  _339
REMARK  137  A    between atoms: _339  and  _340
REMARK  138  A    between atoms: _340  and  _341
REMARK  139  A    between atoms: _341  and  _342
REMARK  140  A    between atoms: _342  and  _343
REMARK  141  A    between atoms: _347  and  _349
REMARK  142  A    between atoms: _349  and  _350
REMARK  143  A    between atoms: _349  and  _352
REMARK  144  A    between atoms: _352  and  _353
REMARK  145  A    between atoms: _356  and  _358
REMARK  146  A    between atoms: _358  and  _359
REMARK  147  A    between atoms: _362  and  _364
REMARK  148  A    between atoms: _364  and  _365
REMARK  149  A    between atoms: _364  and  _367
REMARK  150  A    between atoms: _367  and  _368
REMARK  151  A    between atoms: _368  and  _482
REMARK  152  A    between atoms: _369  and  _371
REMARK  153  A    between atoms: _371  and  _372
REMARK  154  A    between atoms: _371  and  _374
REMARK  155  A    between atoms: _374  and  _375
REMARK  156  A    between atoms: _375  and  _376
REMARK  157  A    between atoms: _376  and  _377
REMARK  158  A    between atoms: _377  and  _378
REMARK  159  A    between atoms: _382  and  _384
REMARK  160  A    between atoms: _384  and  _385
REMARK  161  A    between atoms: _387  and  _389
REMARK  162  A    between atoms: _389  and  _390
REMARK  163  A    between atoms: _389  and  _392
REMARK  164  A    between atoms: _392  and  _393
REMARK  165  A    between atoms: _396  and  _398
REMARK  166  A    between atoms: _398  and  _399
REMARK  167  A    between atoms: _398  and  _401
REMARK  168  A    between atoms: _401  and  _402
REMARK  169  A    between atoms: _404  and  _406
REMARK  170  A    between atoms: _406  and  _407
REMARK  171  A    between atoms: _409  and  _411
REMARK  172  A    between atoms: _411  and  _412
REMARK  173  A    between atoms: _414  and  _416
REMARK  174  A    between atoms: _416  and  _417
REMARK  175  A    between atoms: _416  and  _419
REMARK  176  A    between atoms: _419  and  _420
REMARK  177  A    between atoms: _423  and  _425
REMARK  178  A    between atoms: _425  and  _426
REMARK  179  A    between atoms: _425  and  _428
REMARK  180  A    between atoms: _428  and  _429
REMARK  181  A    between atoms: _432  and  _434
REMARK  182  A    between atoms: _434  and  _435
REMARK  183  A    between atoms: _434  and  _437
REMARK  184  A    between atoms: _437  and  _438
REMARK  185  A    between atoms: _440  and  _442
REMARK  186  A    between atoms: _442  and  _443
REMARK  187  A    between atoms: _442  and  _445
REMARK  188  A    between atoms: _445  and  _446
REMARK  189  A    between atoms: _456  and  _458
REMARK  190  A    between atoms: _458  and  _459
REMARK  191  A    between atoms: _461  and  _463
REMARK  192  A    between atoms: _463  and  _464
REMARK  193  A    between atoms: _463  and  _466
REMARK  194  A    between atoms: _466  and  _467
REMARK  195  A    between atoms: _467  and  _468
REMARK  196  A    between atoms: _471  and  _473
REMARK  197  A    between atoms: _473  and  _474
REMARK  198  A    between atoms: _476  and  _478
REMARK  199  A    between atoms: _478  and  _479
REMARK  200  A    between atoms: _478  and  _481
REMARK  201  A    between atoms: _481  and  _482
REMARK  202  A    between atoms: _483  and  _485
REMARK  203  A    between atoms: _485  and  _486
REMARK  204  A    between atoms: _489  and  _491
REMARK  205  A    between atoms: _491  and  _492
REMARK  206  A    between atoms: _491  and  _494
REMARK  207  A    between atoms: _494  and  _495
REMARK  208  A    between atoms: _495  and  _496
REMARK  209  A    between atoms: _501  and  _503
REMARK  210  A    between atoms: _503  and  _504
REMARK  211  A    between atoms: _503  and  _506
REMARK  212  A    between atoms: _506  and  _507
REMARK  213  A    between atoms: _507  and  _508
REMARK  214  A    between atoms: _508  and  _509
REMARK  215  A    between atoms: _519  and  _520
REMARK  216  A    between atoms: _525  and  _527
REMARK  217  A    between atoms: _527  and  _528
REMARK  218  A    between atoms: _530  and  _532
REMARK  219  A    between atoms: _532  and  _533
REMARK  220  A    between atoms: _532  and  _535
REMARK  221  A    between atoms: _538  and  _540
REMARK  222  A    between atoms: _540  and  _541
REMARK  223  A    between atoms: _540  and  _543
REMARK  224  A    between atoms: _543  and  _544
REMARK  225  A    between atoms: _549  and  _550
REMARK                            x       y       z     vdW  Elec       q    Type
REMARK                         _______ _______ _______ _____ _____    ______ ____
ROOT
ATOM      1  O   HOH     1      49.216 -17.415  24.747  0.00  0.00    +0.000 OA
ENDROOT
TORSDOF 0
REMARK  Name = ../refined-set-2016/4ty6/4ty6_pocket.pdb
REMARK  225 active torsions:
REMARK  status: ('A' for Active; 'I' for Inactive)
REMARK    1  A    between atoms: _1  and  _5
REMARK    2  A    between atoms: _5  and  _6
REMARK    3  A    between atoms: _5  and  _8
REMARK    4  A    between atoms: _8  and  _9
REMARK    5  A    between atoms: _12  and  _14
REMARK    6  A    between atoms: _14  and  _15
REMARK    7  A    between atoms: _14  and  _17
REMARK    8  A    between atoms: _20  and  _22
REMARK    9  A    between atoms: _22  and  _23
REMARK   10  A    between atoms: _22  and  _25
REMARK   11  A    between atoms: _25  and  _26
REMARK   12  A    between atoms: _29  and  _31
REMARK   13  A    between atoms: _31  and  _32
REMARK   14  A    between atoms: _31  and  _34
REMARK   15  A    between atoms: _34  and  _35
REMARK   16  A    between atoms: _38  and  _40
REMARK   17  A    between atoms: _40  and  _41
REMARK   18  A    between atoms: _40  and  _43
REMARK   19  A    between atoms: _43  and  _44
REMARK   20  A    between atoms: _49  and  _51
REMARK   21  A    between atoms: _51  and  _52
REMARK   22  A    between atoms: _51  and  _54
REMARK   23  A    between atoms: _54  and  _55
REMARK   24  A    between atoms: _58  and  _60
REMARK   25  A    between atoms: _60  and  _61
REMARK   26  A    between atoms: _60  and  _63
REMARK   27  A    between atoms: _63  and  _64
REMARK   28  A    between atoms: _67  and  _69
REMARK   29  A    between atoms: _69  and  _70
REMARK   30  A    between atoms: _69  and  _72
REMARK   31  A    between atoms: _72  and  _73
REMARK   32  A    between atoms: _73  and  _74
REMARK   33  A    between atoms: _79  and  _81
REMARK   34  A    between atoms: _81  and  _82
REMARK   35  A    between atoms: _81  and  _84
REMARK   36  A    between atoms: _84  and  _85
REMARK   37  A    between atoms: _85  and  _86
REMARK   38  A    between atoms: _86  and  _87
REMARK   39  A    between atoms: _96  and  _98
REMARK   40  A    between atoms: _98  and  _99
REMARK   41  A    between atoms: _98  and  _101
REMARK   42  A    between atoms: _101  and  _102
REMARK   43  A    between atoms: _107  and  _109
REMARK   44  A    between atoms: _109  and  _110
REMARK   45  A    between atoms: _109  and  _112
REMARK   46  A    between atoms: _112  and  _113
REMARK   47  A    between atoms: _116  and  _118
REMARK   48  A    between atoms: _118  and  _119
REMARK   49  A    between atoms: _118  and  _121
REMARK   50  A    between atoms: _121  and  _122
REMARK   51  A    between atoms: _122  and  _157
REMARK   52  A    between atoms: _123  and  _125
REMARK   53  A    between atoms: _125  and  _126
REMARK   54  A    between atoms: _128  and  _130
REMARK   55  A    between atoms: _130  and  _131
REMARK   56  A    between atoms: _134  and  _136
REMARK   57  A    between atoms: _136  and  _137
REMARK   58  A    between atoms: _140  and  _142
REMARK   59  A    between atoms: _142  and  _143
REMARK   60  A    between atoms: _142  and  _145
REMARK   61  A    between atoms: _145  and  _146
REMARK   62  A    between atoms: _151  and  _153
REMARK   63  A    between atoms: _153  and  _154
REMARK   64  A    between atoms: _153  and  _156
REMARK   65  A    between atoms: _156  and  _157
REMARK   66  A    between atoms: _158  and  _160
REMARK   67  A    between atoms: _160  and  _161
REMARK   68  A    between atoms: _160  and  _163
REMARK   69  A    between atoms: _163  and  _164
REMARK   70  A    between atoms: _170  and  _172
REMARK   71  A    between atoms: _172  and  _173
REMARK   72  A    between atoms: _172  and  _175
REMARK   73  A    between atoms: _175  and  _176
REMARK   74  A    between atoms: _181  and  _182
REMARK   75  A    between atoms: _184  and  _186
REMARK   76  A    between atoms: _186  and  _187
REMARK   77  A    between atoms: _186  and  _189
REMARK   78  A    between atoms: _192  and  _194
REMARK   79  A    between atoms: _194  and  _195
REMARK   80  A    between atoms: _194  and  _197
REMARK   81  A    between atoms: _197  and  _198
REMARK   82  A    between atoms: _198  and  _199
REMARK   83  A    between atoms: _204  and  _206
REMARK   84  A    between atoms: _206  and  _207
REMARK   85  A    between atoms: _210  and  _212
REMARK   86  A    between atoms: _212  and  _213
REMARK   87  A    between atoms: _212  and  _215
REMARK   88  A    between atoms: _215  and  _216
REMARK   89  A    between atoms: _219  and  _221
REMARK   90  A    between atoms: _221  and  _222
REMARK   91  A    between atoms: _221  and  _224
REMARK   92  A    between atoms: _227  and  _229
REMARK   93  A    between atoms: _229  and  _230
REMARK   94  A    between atoms: _229  and  _232
REMARK   95  A    between atoms: _232  and  _233
REMARK   96  A    between atoms: _243  and  _245
REMARK   97  A    between atoms: _245  and  _246
REMARK   98  A    between atoms: _248  and  _250
REMARK   99  A    between atoms: _250  and  _251
REMARK  100  A    between atoms: _250  and  _253
REMARK  101  A    between atoms: _253  and  _254
REMARK  102  A    between atoms: _259  and  _260
REMARK  103  A    between atoms: _262  and  _264
REMARK  104  A    between atoms: _264  and  _265
REMARK  105  A    between atoms: _264  and  _267
REMARK  106  A    between atoms: _267  and  _268
REMARK  107  A    between atoms: _271  and  _273
REMARK  108  A    between atoms: _273  and  _274
REMARK  109  A    between atoms: _273  and  _276
REMARK  110  A    between atoms: _276  and  _277
REMARK  111  A    between atoms: _280  and  _282
REMARK  112  A    between atoms: _282  and  _283
REMARK  113  A    between atoms: _282  and  _285
REMARK  114  A    between atoms: _285  and  _286
REMARK  115  A    between atoms: _286  and  _287
REMARK  116  A    between atoms: _287  and  _288
REMARK  117  A    between atoms: _288  and  _289
REMARK  118  A    between atoms: _293  and  _295
REMARK  119  A    between atoms: _295  and  _296
REMARK  120  A    between atoms: _295  and  _298
REMARK  121  A    between atoms: _298  and  _299
REMARK  122  A    between atoms: _302  and  _304
REMARK  123  A    between atoms: _304  and  _305
REMARK  124  A    between atoms: _304  and  _307
REMARK  125  A    between atoms: _307  and  _308
REMARK  126  A    between atoms: _308  and  _309
REMARK  127  A    between atoms: _314  and  _316
REMARK  128  A    between atoms: _316  and  _317
REMARK  129  A    between atoms: _316  and  _319
REMARK  130  A    between atoms: _319  and  _320
REMARK  131  A    between atoms: _325  and  _326
REMARK  132  A    between atoms: _328  and  _330
REMARK  133  A    between atoms: _330  and  _331
REMARK  134  A    between atoms: _334  and  _336
REMARK  135  A    between atoms: _336  and  _337
REMARK  136  A    between atoms: _336  and  _339
REMARK  137  A    between atoms: _339  and  _340
REMARK  138  A    between atoms: _340  and  _341
REMARK  139  A    between atoms: _341  and  _342
REMARK  140  A    between atoms: _342  and  _343
REMARK  141  A    between atoms: _347  and  _349
REMARK  142  A    between atoms: _349  and  _350
REMARK  143  A    between atoms: _349  and  _352
REMARK  144  A    between atoms: _352  and  _353
REMARK  145  A    between atoms: _356  and  _358
REMARK  146  A    between atoms: _358  and  _359
REMARK  147  A    between atoms: _362  and  _364
REMARK  148  A    between atoms: _364  and  _365
REMARK  149  A    between atoms: _364  and  _367
REMARK  150  A    between atoms: _367  and  _368
REMARK  151  A    between atoms: _368  and  _482
REMARK  152  A    between atoms: _369  and  _371
REMARK  153  A    between atoms: _371  and  _372
REMARK  154  A    between atoms: _371  and  _374
REMARK  155  A    between atoms: _374  and  _375
REMARK  156  A    between atoms: _375  and  _376
REMARK  157  A    between atoms: _376  and  _377
REMARK  158  A    between atoms: _377  and  _378
REMARK  159  A    between atoms: _382  and  _384
REMARK  160  A    between atoms: _384  and  _385
REMARK  161  A    between atoms: _387  and  _389
REMARK  162  A    between atoms: _389  and  _390
REMARK  163  A    between atoms: _389  and  _392
REMARK  164  A    between atoms: _392  and  _393
REMARK  165  A    between atoms: _396  and  _398
REMARK  166  A    between atoms: _398  and  _399
REMARK  167  A    between atoms: _398  and  _401
REMARK  168  A    between atoms: _401  and  _402
REMARK  169  A    between atoms: _404  and  _406
REMARK  170  A    between atoms: _406  and  _407
REMARK  171  A    between atoms: _409  and  _411
REMARK  172  A    between atoms: _411  and  _412
REMARK  173  A    between atoms: _414  and  _416
REMARK  174  A    between atoms: _416  and  _417
REMARK  175  A    between atoms: _416  and  _419
REMARK  176  A    between atoms: _419  and  _420
REMARK  177  A    between atoms: _423  and  _425
REMARK  178  A    between atoms: _425  and  _426
REMARK  179  A    between atoms: _425  and  _428
REMARK  180  A    between atoms: _428  and  _429
REMARK  181  A    between atoms: _432  and  _434
REMARK  182  A    between atoms: _434  and  _435
REMARK  183  A    between atoms: _434  and  _437
REMARK  184  A    between atoms: _437  and  _438
REMARK  185  A    between atoms: _440  and  _442
REMARK  186  A    between atoms: _442  and  _443
REMARK  187  A    between atoms: _442  and  _445
REMARK  188  A    between atoms: _445  and  _446
REMARK  189  A    between atoms: _456  and  _458
REMARK  190  A    between atoms: _458  and  _459
REMARK  191  A    between atoms: _461  and  _463
REMARK  192  A    between atoms: _463  and  _464
REMARK  193  A    between atoms: _463  and  _466
REMARK  194  A    between atoms: _466  and  _467
REMARK  195  A    between atoms: _467  and  _468
REMARK  196  A    between atoms: _471  and  _473
REMARK  197  A    between atoms: _473  and  _474
REMARK  198  A    between atoms: _476  and  _478
REMARK  199  A    between atoms: _478  and  _479
REMARK  200  A    between atoms: _478  and  _481
REMARK  201  A    between atoms: _481  and  _482
REMARK  202  A    between atoms: _483  and  _485
REMARK  203  A    between atoms: _485  and  _486
REMARK  204  A    between atoms: _489  and  _491
REMARK  205  A    between atoms: _491  and  _492
REMARK  206  A    between atoms: _491  and  _494
REMARK  207  A    between atoms: _494  and  _495
REMARK  208  A    between atoms: _495  and  _496
REMARK  209  A    between atoms: _501  and  _503
REMARK  210  A    between atoms: _503  and  _504
REMARK  211  A    between atoms: _503  and  _506
REMARK  212  A    between atoms: _506  and  _507
REMARK  213  A    between atoms: _507  and  _508
REMARK  214  A    between atoms: _508  and  _509
REMARK  215  A    between atoms: _519  and  _520
REMARK  216  A    between atoms: _525  and  _527
REMARK  217  A    between atoms: _527  and  _528
REMARK  218  A    between atoms: _530  and  _532
REMARK  219  A    between atoms: _532  and  _533
REMARK  220  A    between atoms: _532  and  _535
REMARK  221  A    between atoms: _538  and  _540
REMARK  222  A    between atoms: _540  and  _541
REMARK  223  A    between atoms: _540  and  _543
REMARK  224  A    between atoms: _543  and  _544
REMARK  225  A    between atoms: _549  and  _550
REMARK                            x       y       z     vdW  Elec       q    Type
REMARK                         _______ _______ _______ _____ _____    ______ ____
ROOT
ATOM      1  O   HOH     1      43.927 -30.242  31.080  0.00  0.00    +0.000 OA
ENDROOT
TORSDOF 0
REMARK  Name = ../refined-set-2016/4ty6/4ty6_pocket.pdb
REMARK  225 active torsions:
REMARK  status: ('A' for Active; 'I' for Inactive)
REMARK    1  A    between atoms: _1  and  _5
REMARK    2  A    between atoms: _5  and  _6
REMARK    3  A    between atoms: _5  and  _8
REMARK    4  A    between atoms: _8  and  _9
REMARK    5  A    between atoms: _12  and  _14
REMARK    6  A    between atoms: _14  and  _15
REMARK    7  A    between atoms: _14  and  _17
REMARK    8  A    between atoms: _20  and  _22
REMARK    9  A    between atoms: _22  and  _23
REMARK   10  A    between atoms: _22  and  _25
REMARK   11  A    between atoms: _25  and  _26
REMARK   12  A    between atoms: _29  and  _31
REMARK   13  A    between atoms: _31  and  _32
REMARK   14  A    between atoms: _31  and  _34
REMARK   15  A    between atoms: _34  and  _35
REMARK   16  A    between atoms: _38  and  _40
REMARK   17  A    between atoms: _40  and  _41
REMARK   18  A    between atoms: _40  and  _43
REMARK   19  A    between atoms: _43  and  _44
REMARK   20  A    between atoms: _49  and  _51
REMARK   21  A    between atoms: _51  and  _52
REMARK   22  A    between atoms: _51  and  _54
REMARK   23  A    between atoms: _54  and  _55
REMARK   24  A    between atoms: _58  and  _60
REMARK   25  A    between atoms: _60  and  _61
REMARK   26  A    between atoms: _60  and  _63
REMARK   27  A    between atoms: _63  and  _64
REMARK   28  A    between atoms: _67  and  _69
REMARK   29  A    between atoms: _69  and  _70
REMARK   30  A    between atoms: _69  and  _72
REMARK   31  A    between atoms: _72  and  _73
REMARK   32  A    between atoms: _73  and  _74
REMARK   33  A    between atoms: _79  and  _81
REMARK   34  A    between atoms: _81  and  _82
REMARK   35  A    between atoms: _81  and  _84
REMARK   36  A    between atoms: _84  and  _85
REMARK   37  A    between atoms: _85  and  _86
REMARK   38  A    between atoms: _86  and  _87
REMARK   39  A    between atoms: _96  and  _98
REMARK   40  A    between atoms: _98  and  _99
REMARK   41  A    between atoms: _98  and  _101
REMARK   42  A    between atoms: _101  and  _102
REMARK   43  A    between atoms: _107  and  _109
REMARK   44  A    between atoms: _109  and  _110
REMARK   45  A    between atoms: _109  and  _112
REMARK   46  A    between atoms: _112  and  _113
REMARK   47  A    between atoms: _116  and  _118
REMARK   48  A    between atoms: _118  and  _119
REMARK   49  A    between atoms: _118  and  _121
REMARK   50  A    between atoms: _121  and  _122
REMARK   51  A    between atoms: _122  and  _157
REMARK   52  A    between atoms: _123  and  _125
REMARK   53  A    between atoms: _125  and  _126
REMARK   54  A    between atoms: _128  and  _130
REMARK   55  A    between atoms: _130  and  _131
REMARK   56  A    between atoms: _134  and  _136
REMARK   57  A    between atoms: _136  and  _137
REMARK   58  A    between atoms: _140  and  _142
REMARK   59  A    between atoms: _142  and  _143
REMARK   60  A    between atoms: _142  and  _145
REMARK   61  A    between atoms: _145  and  _146
REMARK   62  A    between atoms: _151  and  _153
REMARK   63  A    between atoms: _153  and  _154
REMARK   64  A    between atoms: _153  and  _156
REMARK   65  A    between atoms: _156  and  _157
REMARK   66  A    between atoms: _158  and  _160
REMARK   67  A    between atoms: _160  and  _161
REMARK   68  A    between atoms: _160  and  _163
REMARK   69  A    between atoms: _163  and  _164
REMARK   70  A    between atoms: _170  and  _172
REMARK   71  A    between atoms: _172  and  _173
REMARK   72  A    between atoms: _172  and  _175
REMARK   73  A    between atoms: _175  and  _176
REMARK   74  A    between atoms: _181  and  _182
REMARK   75  A    between atoms: _184  and  _186
REMARK   76  A    between atoms: _186  and  _187
REMARK   77  A    between atoms: _186  and  _189
REMARK   78  A    between atoms: _192  and  _194
REMARK   79  A    between atoms: _194  and  _195
REMARK   80  A    between atoms: _194  and  _197
REMARK   81  A    between atoms: _197  and  _198
REMARK   82  A    between atoms: _198  and  _199
REMARK   83  A    between atoms: _204  and  _206
REMARK   84  A    between atoms: _206  and  _207
REMARK   85  A    between atoms: _210  and  _212
REMARK   86  A    between atoms: _212  and  _213
REMARK   87  A    between atoms: _212  and  _215
REMARK   88  A    between atoms: _215  and  _216
REMARK   89  A    between atoms: _219  and  _221
REMARK   90  A    between atoms: _221  and  _222
REMARK   91  A    between atoms: _221  and  _224
REMARK   92  A    between atoms: _227  and  _229
REMARK   93  A    between atoms: _229  and  _230
REMARK   94  A    between atoms: _229  and  _232
REMARK   95  A    between atoms: _232  and  _233
REMARK   96  A    between atoms: _243  and  _245
REMARK   97  A    between atoms: _245  and  _246
REMARK   98  A    between atoms: _248  and  _250
REMARK   99  A    between atoms: _250  and  _251
REMARK  100  A    between atoms: _250  and  _253
REMARK  101  A    between atoms: _253  and  _254
REMARK  102  A    between atoms: _259  and  _260
REMARK  103  A    between atoms: _262  and  _264
REMARK  104  A    between atoms: _264  and  _265
REMARK  105  A    between atoms: _264  and  _267
REMARK  106  A    between atoms: _267  and  _268
REMARK  107  A    between atoms: _271  and  _273
REMARK  108  A    between atoms: _273  and  _274
REMARK  109  A    between atoms: _273  and  _276
REMARK  110  A    between atoms: _276  and  _277
REMARK  111  A    between atoms: _280  and  _282
REMARK  112  A    between atoms: _282  and  _283
REMARK  113  A    between atoms: _282  and  _285
REMARK  114  A    between atoms: _285  and  _286
REMARK  115  A    between atoms: _286  and  _287
REMARK  116  A    between atoms: _287  and  _288
REMARK  117  A    between atoms: _288  and  _289
REMARK  118  A    between atoms: _293  and  _295
REMARK  119  A    between atoms: _295  and  _296
REMARK  120  A    between atoms: _295  and  _298
REMARK  121  A    between atoms: _298  and  _299
REMARK  122  A    between atoms: _302  and  _304
REMARK  123  A    between atoms: _304  and  _305
REMARK  124  A    between atoms: _304  and  _307
REMARK  125  A    between atoms: _307  and  _308
REMARK  126  A    between atoms: _308  and  _309
REMARK  127  A    between atoms: _314  and  _316
REMARK  128  A    between atoms: _316  and  _317
REMARK  129  A    between atoms: _316  and  _319
REMARK  130  A    between atoms: _319  and  _320
REMARK  131  A    between atoms: _325  and  _326
REMARK  132  A    between atoms: _328  and  _330
REMARK  133  A    between atoms: _330  and  _331
REMARK  134  A    between atoms: _334  and  _336
REMARK  135  A    between atoms: _336  and  _337
REMARK  136  A    between atoms: _336  and  _339
REMARK  137  A    between atoms: _339  and  _340
REMARK  138  A    between atoms: _340  and  _341
REMARK  139  A    between atoms: _341  and  _342
REMARK  140  A    between atoms: _342  and  _343
REMARK  141  A    between atoms: _347  and  _349
REMARK  142  A    between atoms: _349  and  _350
REMARK  143  A    between atoms: _349  and  _352
REMARK  144  A    between atoms: _352  and  _353
REMARK  145  A    between atoms: _356  and  _358
REMARK  146  A    between atoms: _358  and  _359
REMARK  147  A    between atoms: _362  and  _364
REMARK  148  A    between atoms: _364  and  _365
REMARK  149  A    between atoms: _364  and  _367
REMARK  150  A    between atoms: _367  and  _368
REMARK  151  A    between atoms: _368  and  _482
REMARK  152  A    between atoms: _369  and  _371
REMARK  153  A    between atoms: _371  and  _372
REMARK  154  A    between atoms: _371  and  _374
REMARK  155  A    between atoms: _374  and  _375
REMARK  156  A    between atoms: _375  and  _376
REMARK  157  A    between atoms: _376  and  _377
REMARK  158  A    between atoms: _377  and  _378
REMARK  159  A    between atoms: _382  and  _384
REMARK  160  A    between atoms: _384  and  _385
REMARK  161  A    between atoms: _387  and  _389
REMARK  162  A    between atoms: _389  and  _390
REMARK  163  A    between atoms: _389  and  _392
REMARK  164  A    between atoms: _392  and  _393
REMARK  165  A    between atoms: _396  and  _398
REMARK  166  A    between atoms: _398  and  _399
REMARK  167  A    between atoms: _398  and  _401
REMARK  168  A    between atoms: _401  and  _402
REMARK  169  A    between atoms: _404  and  _406
REMARK  170  A    between atoms: _406  and  _407
REMARK  171  A    between atoms: _409  and  _411
REMARK  172  A    between atoms: _411  and  _412
REMARK  173  A    between atoms: _414  and  _416
REMARK  174  A    between atoms: _416  and  _417
REMARK  175  A    between atoms: _416  and  _419
REMARK  176  A    between atoms: _419  and  _420
REMARK  177  A    between atoms: _423  and  _425
REMARK  178  A    between atoms: _425  and  _426
REMARK  179  A    between atoms: _425  and  _428
REMARK  180  A    between atoms: _428  and  _429
REMARK  181  A    between atoms: _432  and  _434
REMARK  182  A    between atoms: _434  and  _435
REMARK  183  A    between atoms: _434  and  _437
REMARK  184  A    between atoms: _437  and  _438
REMARK  185  A    between atoms: _440  and  _442
REMARK  186  A    between atoms: _442  and  _443
REMARK  187  A    between atoms: _442  and  _445
REMARK  188  A    between atoms: _445  and  _446
REMARK  189  A    between atoms: _456  and  _458
REMARK  190  A    between atoms: _458  and  _459
REMARK  191  A    between atoms: _461  and  _463
REMARK  192  A    between atoms: _463  and  _464
REMARK  193  A    between atoms: _463  and  _466
REMARK  194  A    between atoms: _466  and  _467
REMARK  195  A    between atoms: _467  and  _468
REMARK  196  A    between atoms: _471  and  _473
REMARK  197  A    between atoms: _473  and  _474
REMARK  198  A    between atoms: _476  and  _478
REMARK  199  A    between atoms: _478  and  _479
REMARK  200  A    between atoms: _478  and  _481
REMARK  201  A    between atoms: _481  and  _482
REMARK  202  A    between atoms: _483  and  _485
REMARK  203  A    between atoms: _485  and  _486
REMARK  204  A    between atoms: _489  and  _491
REMARK  205  A    between atoms: _491  and  _492
REMARK  206  A    between atoms: _491  and  _494
REMARK  207  A    between atoms: _494  and  _495
REMARK  208  A    between atoms: _495  and  _496
REMARK  209  A    between atoms: _501  and  _503
REMARK  210  A    between atoms: _503  and  _504
REMARK  211  A    between atoms: _503  and  _506
REMARK  212  A    between atoms: _506  and  _507
REMARK  213  A    between atoms: _507  and  _508
REMARK  214  A    between atoms: _508  and  _509
REMARK  215  A    between atoms: _519  and  _520
REMARK  216  A    between atoms: _525  and  _527
REMARK  217  A    between atoms: _527  and  _528
REMARK  218  A    between atoms: _530  and  _532
REMARK  219  A    between atoms: _532  and  _533
REMARK  220  A    between atoms: _532  and  _535
REMARK  221  A    between atoms: _538  and  _540
REMARK  222  A    between atoms: _540  and  _541
REMARK  223  A    between atoms: _540  and  _543
REMARK  224  A    between atoms: _543  and  _544
REMARK  225  A    between atoms: _549  and  _550
REMARK                            x       y       z     vdW  Elec       q    Type
REMARK                         _______ _______ _______ _____ _____    ______ ____
ROOT
ATOM      1  O   HOH     1      50.041 -21.559  39.802  0.00  0.00    +0.000 OA
ENDROOT
TORSDOF 0
REMARK  Name = ../refined-set-2016/4ty6/4ty6_pocket.pdb
REMARK  225 active torsions:
REMARK  status: ('A' for Active; 'I' for Inactive)
REMARK    1  A    between atoms: _1  and  _5
REMARK    2  A    between atoms: _5  and  _6
REMARK    3  A    between atoms: _5  and  _8
REMARK    4  A    between atoms: _8  and  _9
REMARK    5  A    between atoms: _12  and  _14
REMARK    6  A    between atoms: _14  and  _15
REMARK    7  A    between atoms: _14  and  _17
REMARK    8  A    between atoms: _20  and  _22
REMARK    9  A    between atoms: _22  and  _23
REMARK   10  A    between atoms: _22  and  _25
REMARK   11  A    between atoms: _25  and  _26
REMARK   12  A    between atoms: _29  and  _31
REMARK   13  A    between atoms: _31  and  _32
REMARK   14  A    between atoms: _31  and  _34
REMARK   15  A    between atoms: _34  and  _35
REMARK   16  A    between atoms: _38  and  _40
REMARK   17  A    between atoms: _40  and  _41
REMARK   18  A    between atoms: _40  and  _43
REMARK   19  A    between atoms: _43  and  _44
REMARK   20  A    between atoms: _49  and  _51
REMARK   21  A    between atoms: _51  and  _52
REMARK   22  A    between atoms: _51  and  _54
REMARK   23  A    between atoms: _54  and  _55
REMARK   24  A    between atoms: _58  and  _60
REMARK   25  A    between atoms: _60  and  _61
REMARK   26  A    between atoms: _60  and  _63
REMARK   27  A    between atoms: _63  and  _64
REMARK   28  A    between atoms: _67  and  _69
REMARK   29  A    between atoms: _69  and  _70
REMARK   30  A    between atoms: _69  and  _72
REMARK   31  A    between atoms: _72  and  _73
REMARK   32  A    between atoms: _73  and  _74
REMARK   33  A    between atoms: _79  and  _81
REMARK   34  A    between atoms: _81  and  _82
REMARK   35  A    between atoms: _81  and  _84
REMARK   36  A    between atoms: _84  and  _85
REMARK   37  A    between atoms: _85  and  _86
REMARK   38  A    between atoms: _86  and  _87
REMARK   39  A    between atoms: _96  and  _98
REMARK   40  A    between atoms: _98  and  _99
REMARK   41  A    between atoms: _98  and  _101
REMARK   42  A    between atoms: _101  and  _102
REMARK   43  A    between atoms: _107  and  _109
REMARK   44  A    between atoms: _109  and  _110
REMARK   45  A    between atoms: _109  and  _112
REMARK   46  A    between atoms: _112  and  _113
REMARK   47  A    between atoms: _116  and  _118
REMARK   48  A    between atoms: _118  and  _119
REMARK   49  A    between atoms: _118  and  _121
REMARK   50  A    between atoms: _121  and  _122
REMARK   51  A    between atoms: _122  and  _157
REMARK   52  A    between atoms: _123  and  _125
REMARK   53  A    between atoms: _125  and  _126
REMARK   54  A    between atoms: _128  and  _130
REMARK   55  A    between atoms: _130  and  _131
REMARK   56  A    between atoms: _134  and  _136
REMARK   57  A    between atoms: _136  and  _137
REMARK   58  A    between atoms: _140  and  _142
REMARK   59  A    between atoms: _142  and  _143
REMARK   60  A    between atoms: _142  and  _145
REMARK   61  A    between atoms: _145  and  _146
REMARK   62  A    between atoms: _151  and  _153
REMARK   63  A    between atoms: _153  and  _154
REMARK   64  A    between atoms: _153  and  _156
REMARK   65  A    between atoms: _156  and  _157
REMARK   66  A    between atoms: _158  and  _160
REMARK   67  A    between atoms: _160  and  _161
REMARK   68  A    between atoms: _160  and  _163
REMARK   69  A    between atoms: _163  and  _164
REMARK   70  A    between atoms: _170  and  _172
REMARK   71  A    between atoms: _172  and  _173
REMARK   72  A    between atoms: _172  and  _175
REMARK   73  A    between atoms: _175  and  _176
REMARK   74  A    between atoms: _181  and  _182
REMARK   75  A    between atoms: _184  and  _186
REMARK   76  A    between atoms: _186  and  _187
REMARK   77  A    between atoms: _186  and  _189
REMARK   78  A    between atoms: _192  and  _194
REMARK   79  A    between atoms: _194  and  _195
REMARK   80  A    between atoms: _194  and  _197
REMARK   81  A    between atoms: _197  and  _198
REMARK   82  A    between atoms: _198  and  _199
REMARK   83  A    between atoms: _204  and  _206
REMARK   84  A    between atoms: _206  and  _207
REMARK   85  A    between atoms: _210  and  _212
REMARK   86  A    between atoms: _212  and  _213
REMARK   87  A    between atoms: _212  and  _215
REMARK   88  A    between atoms: _215  and  _216
REMARK   89  A    between atoms: _219  and  _221
REMARK   90  A    between atoms: _221  and  _222
REMARK   91  A    between atoms: _221  and  _224
REMARK   92  A    between atoms: _227  and  _229
REMARK   93  A    between atoms: _229  and  _230
REMARK   94  A    between atoms: _229  and  _232
REMARK   95  A    between atoms: _232  and  _233
REMARK   96  A    between atoms: _243  and  _245
REMARK   97  A    between atoms: _245  and  _246
REMARK   98  A    between atoms: _248  and  _250
REMARK   99  A    between atoms: _250  and  _251
REMARK  100  A    between atoms: _250  and  _253
REMARK  101  A    between atoms: _253  and  _254
REMARK  102  A    between atoms: _259  and  _260
REMARK  103  A    between atoms: _262  and  _264
REMARK  104  A    between atoms: _264  and  _265
REMARK  105  A    between atoms: _264  and  _267
REMARK  106  A    between atoms: _267  and  _268
REMARK  107  A    between atoms: _271  and  _273
REMARK  108  A    between atoms: _273  and  _274
REMARK  109  A    between atoms: _273  and  _276
REMARK  110  A    between atoms: _276  and  _277
REMARK  111  A    between atoms: _280  and  _282
REMARK  112  A    between atoms: _282  and  _283
REMARK  113  A    between atoms: _282  and  _285
REMARK  114  A    between atoms: _285  and  _286
REMARK  115  A    between atoms: _286  and  _287
REMARK  116  A    between atoms: _287  and  _288
REMARK  117  A    between atoms: _288  and  _289
REMARK  118  A    between atoms: _293  and  _295
REMARK  119  A    between atoms: _295  and  _296
REMARK  120  A    between atoms: _295  and  _298
REMARK  121  A    between atoms: _298  and  _299
REMARK  122  A    between atoms: _302  and  _304
REMARK  123  A    between atoms: _304  and  _305
REMARK  124  A    between atoms: _304  and  _307
REMARK  125  A    between atoms: _307  and  _308
REMARK  126  A    between atoms: _308  and  _309
REMARK  127  A    between atoms: _314  and  _316
REMARK  128  A    between atoms: _316  and  _317
REMARK  129  A    between atoms: _316  and  _319
REMARK  130  A    between atoms: _319  and  _320
REMARK  131  A    between atoms: _325  and  _326
REMARK  132  A    between atoms: _328  and  _330
REMARK  133  A    between atoms: _330  and  _331
REMARK  134  A    between atoms: _334  and  _336
REMARK  135  A    between atoms: _336  and  _337
REMARK  136  A    between atoms: _336  and  _339
REMARK  137  A    between atoms: _339  and  _340
REMARK  138  A    between atoms: _340  and  _341
REMARK  139  A    between atoms: _341  and  _342
REMARK  140  A    between atoms: _342  and  _343
REMARK  141  A    between atoms: _347  and  _349
REMARK  142  A    between atoms: _349  and  _350
REMARK  143  A    between atoms: _349  and  _352
REMARK  144  A    between atoms: _352  and  _353
REMARK  145  A    between atoms: _356  and  _358
REMARK  146  A    between atoms: _358  and  _359
REMARK  147  A    between atoms: _362  and  _364
REMARK  148  A    between atoms: _364  and  _365
REMARK  149  A    between atoms: _364  and  _367
REMARK  150  A    between atoms: _367  and  _368
REMARK  151  A    between atoms: _368  and  _482
REMARK  152  A    between atoms: _369  and  _371
REMARK  153  A    between atoms: _371  and  _372
REMARK  154  A    between atoms: _371  and  _374
REMARK  155  A    between atoms: _374  and  _375
REMARK  156  A    between atoms: _375  and  _376
REMARK  157  A    between atoms: _376  and  _377
REMARK  158  A    between atoms: _377  and  _378
REMARK  159  A    between atoms: _382  and  _384
REMARK  160  A    between atoms: _384  and  _385
REMARK  161  A    between atoms: _387  and  _389
REMARK  162  A    between atoms: _389  and  _390
REMARK  163  A    between atoms: _389  and  _392
REMARK  164  A    between atoms: _392  and  _393
REMARK  165  A    between atoms: _396  and  _398
REMARK  166  A    between atoms: _398  and  _399
REMARK  167  A    between atoms: _398  and  _401
REMARK  168  A    between atoms: _401  and  _402
REMARK  169  A    between atoms: _404  and  _406
REMARK  170  A    between atoms: _406  and  _407
REMARK  171  A    between atoms: _409  and  _411
REMARK  172  A    between atoms: _411  and  _412
REMARK  173  A    between atoms: _414  and  _416
REMARK  174  A    between atoms: _416  and  _417
REMARK  175  A    between atoms: _416  and  _419
REMARK  176  A    between atoms: _419  and  _420
REMARK  177  A    between atoms: _423  and  _425
REMARK  178  A    between atoms: _425  and  _426
REMARK  179  A    between atoms: _425  and  _428
REMARK  180  A    between atoms: _428  and  _429
REMARK  181  A    between atoms: _432  and  _434
REMARK  182  A    between atoms: _434  and  _435
REMARK  183  A    between atoms: _434  and  _437
REMARK  184  A    between atoms: _437  and  _438
REMARK  185  A    between atoms: _440  and  _442
REMARK  186  A    between atoms: _442  and  _443
REMARK  187  A    between atoms: _442  and  _445
REMARK  188  A    between atoms: _445  and  _446
REMARK  189  A    between atoms: _456  and  _458
REMARK  190  A    between atoms: _458  and  _459
REMARK  191  A    between atoms: _461  and  _463
REMARK  192  A    between atoms: _463  and  _464
REMARK  193  A    between atoms: _463  and  _466
REMARK  194  A    between atoms: _466  and  _467
REMARK  195  A    between atoms: _467  and  _468
REMARK  196  A    between atoms: _471  and  _473
REMARK  197  A    between atoms: _473  and  _474
REMARK  198  A    between atoms: _476  and  _478
REMARK  199  A    between atoms: _478  and  _479
REMARK  200  A    between atoms: _478  and  _481
REMARK  201  A    between atoms: _481  and  _482
REMARK  202  A    between atoms: _483  and  _485
REMARK  203  A    between atoms: _485  and  _486
REMARK  204  A    between atoms: _489  and  _491
REMARK  205  A    between atoms: _491  and  _492
REMARK  206  A    between atoms: _491  and  _494
REMARK  207  A    between atoms: _494  and  _495
REMARK  208  A    between atoms: _495  and  _496
REMARK  209  A    between atoms: _501  and  _503
REMARK  210  A    between atoms: _503  and  _504
REMARK  211  A    between atoms: _503  and  _506
REMARK  212  A    between atoms: _506  and  _507
REMARK  213  A    between atoms: _507  and  _508
REMARK  214  A    between atoms: _508  and  _509
REMARK  215  A    between atoms: _519  and  _520
REMARK  216  A    between atoms: _525  and  _527
REMARK  217  A    between atoms: _527  and  _528
REMARK  218  A    between atoms: _530  and  _532
REMARK  219  A    between atoms: _532  and  _533
REMARK  220  A    between atoms: _532  and  _535
REMARK  221  A    between atoms: _538  and  _540
REMARK  222  A    between atoms: _540  and  _541
REMARK  223  A    between atoms: _540  and  _543
REMARK  224  A    between atoms: _543  and  _544
REMARK  225  A    between atoms: _549  and  _550
REMARK                            x       y       z     vdW  Elec       q    Type
REMARK                         _______ _______ _______ _____ _____    ______ ____
ROOT
ATOM      1  O   HOH     1      35.944 -18.740  22.268  0.00  0.00    +0.000 OA
ENDROOT
TORSDOF 0
REMARK  Name = ../refined-set-2016/4ty6/4ty6_pocket.pdb
REMARK  225 active torsions:
REMARK  status: ('A' for Active; 'I' for Inactive)
REMARK    1  A    between atoms: _1  and  _5
REMARK    2  A    between atoms: _5  and  _6
REMARK    3  A    between atoms: _5  and  _8
REMARK    4  A    between atoms: _8  and  _9
REMARK    5  A    between atoms: _12  and  _14
REMARK    6  A    between atoms: _14  and  _15
REMARK    7  A    between atoms: _14  and  _17
REMARK    8  A    between atoms: _20  and  _22
REMARK    9  A    between atoms: _22  and  _23
REMARK   10  A    between atoms: _22  and  _25
REMARK   11  A    between atoms: _25  and  _26
REMARK   12  A    between atoms: _29  and  _31
REMARK   13  A    between atoms: _31  and  _32
REMARK   14  A    between atoms: _31  and  _34
REMARK   15  A    between atoms: _34  and  _35
REMARK   16  A    between atoms: _38  and  _40
REMARK   17  A    between atoms: _40  and  _41
REMARK   18  A    between atoms: _40  and  _43
REMARK   19  A    between atoms: _43  and  _44
REMARK   20  A    between atoms: _49  and  _51
REMARK   21  A    between atoms: _51  and  _52
REMARK   22  A    between atoms: _51  and  _54
REMARK   23  A    between atoms: _54  and  _55
REMARK   24  A    between atoms: _58  and  _60
REMARK   25  A    between atoms: _60  and  _61
REMARK   26  A    between atoms: _60  and  _63
REMARK   27  A    between atoms: _63  and  _64
REMARK   28  A    between atoms: _67  and  _69
REMARK   29  A    between atoms: _69  and  _70
REMARK   30  A    between atoms: _69  and  _72
REMARK   31  A    between atoms: _72  and  _73
REMARK   32  A    between atoms: _73  and  _74
REMARK   33  A    between atoms: _79  and  _81
REMARK   34  A    between atoms: _81  and  _82
REMARK   35  A    between atoms: _81  and  _84
REMARK   36  A    between atoms: _84  and  _85
REMARK   37  A    between atoms: _85  and  _86
REMARK   38  A    between atoms: _86  and  _87
REMARK   39  A    between atoms: _96  and  _98
REMARK   40  A    between atoms: _98  and  _99
REMARK   41  A    between atoms: _98  and  _101
REMARK   42  A    between atoms: _101  and  _102
REMARK   43  A    between atoms: _107  and  _109
REMARK   44  A    between atoms: _109  and  _110
REMARK   45  A    between atoms: _109  and  _112
REMARK   46  A    between atoms: _112  and  _113
REMARK   47  A    between atoms: _116  and  _118
REMARK   48  A    between atoms: _118  and  _119
REMARK   49  A    between atoms: _118  and  _121
REMARK   50  A    between atoms: _121  and  _122
REMARK   51  A    between atoms: _122  and  _157
REMARK   52  A    between atoms: _123  and  _125
REMARK   53  A    between atoms: _125  and  _126
REMARK   54  A    between atoms: _128  and  _130
REMARK   55  A    between atoms: _130  and  _131
REMARK   56  A    between atoms: _134  and  _136
REMARK   57  A    between atoms: _136  and  _137
REMARK   58  A    between atoms: _140  and  _142
REMARK   59  A    between atoms: _142  and  _143
REMARK   60  A    between atoms: _142  and  _145
REMARK   61  A    between atoms: _145  and  _146
REMARK   62  A    between atoms: _151  and  _153
REMARK   63  A    between atoms: _153  and  _154
REMARK   64  A    between atoms: _153  and  _156
REMARK   65  A    between atoms: _156  and  _157
REMARK   66  A    between atoms: _158  and  _160
REMARK   67  A    between atoms: _160  and  _161
REMARK   68  A    between atoms: _160  and  _163
REMARK   69  A    between atoms: _163  and  _164
REMARK   70  A    between atoms: _170  and  _172
REMARK   71  A    between atoms: _172  and  _173
REMARK   72  A    between atoms: _172  and  _175
REMARK   73  A    between atoms: _175  and  _176
REMARK   74  A    between atoms: _181  and  _182
REMARK   75  A    between atoms: _184  and  _186
REMARK   76  A    between atoms: _186  and  _187
REMARK   77  A    between atoms: _186  and  _189
REMARK   78  A    between atoms: _192  and  _194
REMARK   79  A    between atoms: _194  and  _195
REMARK   80  A    between atoms: _194  and  _197
REMARK   81  A    between atoms: _197  and  _198
REMARK   82  A    between atoms: _198  and  _199
REMARK   83  A    between atoms: _204  and  _206
REMARK   84  A    between atoms: _206  and  _207
REMARK   85  A    between atoms: _210  and  _212
REMARK   86  A    between atoms: _212  and  _213
REMARK   87  A    between atoms: _212  and  _215
REMARK   88  A    between atoms: _215  and  _216
REMARK   89  A    between atoms: _219  and  _221
REMARK   90  A    between atoms: _221  and  _222
REMARK   91  A    between atoms: _221  and  _224
REMARK   92  A    between atoms: _227  and  _229
REMARK   93  A    between atoms: _229  and  _230
REMARK   94  A    between atoms: _229  and  _232
REMARK   95  A    between atoms: _232  and  _233
REMARK   96  A    between atoms: _243  and  _245
REMARK   97  A    between atoms: _245  and  _246
REMARK   98  A    between atoms: _248  and  _250
REMARK   99  A    between atoms: _250  and  _251
REMARK  100  A    between atoms: _250  and  _253
REMARK  101  A    between atoms: _253  and  _254
REMARK  102  A    between atoms: _259  and  _260
REMARK  103  A    between atoms: _262  and  _264
REMARK  104  A    between atoms: _264  and  _265
REMARK  105  A    between atoms: _264  and  _267
REMARK  106  A    between atoms: _267  and  _268
REMARK  107  A    between atoms: _271  and  _273
REMARK  108  A    between atoms: _273  and  _274
REMARK  109  A    between atoms: _273  and  _276
REMARK  110  A    between atoms: _276  and  _277
REMARK  111  A    between atoms: _280  and  _282
REMARK  112  A    between atoms: _282  and  _283
REMARK  113  A    between atoms: _282  and  _285
REMARK  114  A    between atoms: _285  and  _286
REMARK  115  A    between atoms: _286  and  _287
REMARK  116  A    between atoms: _287  and  _288
REMARK  117  A    between atoms: _288  and  _289
REMARK  118  A    between atoms: _293  and  _295
REMARK  119  A    between atoms: _295  and  _296
REMARK  120  A    between atoms: _295  and  _298
REMARK  121  A    between atoms: _298  and  _299
REMARK  122  A    between atoms: _302  and  _304
REMARK  123  A    between atoms: _304  and  _305
REMARK  124  A    between atoms: _304  and  _307
REMARK  125  A    between atoms: _307  and  _308
REMARK  126  A    between atoms: _308  and  _309
REMARK  127  A    between atoms: _314  and  _316
REMARK  128  A    between atoms: _316  and  _317
REMARK  129  A    between atoms: _316  and  _319
REMARK  130  A    between atoms: _319  and  _320
REMARK  131  A    between atoms: _325  and  _326
REMARK  132  A    between atoms: _328  and  _330
REMARK  133  A    between atoms: _330  and  _331
REMARK  134  A    between atoms: _334  and  _336
REMARK  135  A    between atoms: _336  and  _337
REMARK  136  A    between atoms: _336  and  _339
REMARK  137  A    between atoms: _339  and  _340
REMARK  138  A    between atoms: _340  and  _341
REMARK  139  A    between atoms: _341  and  _342
REMARK  140  A    between atoms: _342  and  _343
REMARK  141  A    between atoms: _347  and  _349
REMARK  142  A    between atoms: _349  and  _350
REMARK  143  A    between atoms: _349  and  _352
REMARK  144  A    between atoms: _352  and  _353
REMARK  145  A    between atoms: _356  and  _358
REMARK  146  A    between atoms: _358  and  _359
REMARK  147  A    between atoms: _362  and  _364
REMARK  148  A    between atoms: _364  and  _365
REMARK  149  A    between atoms: _364  and  _367
REMARK  150  A    between atoms: _367  and  _368
REMARK  151  A    between atoms: _368  and  _482
REMARK  152  A    between atoms: _369  and  _371
REMARK  153  A    between atoms: _371  and  _372
REMARK  154  A    between atoms: _371  and  _374
REMARK  155  A    between atoms: _374  and  _375
REMARK  156  A    between atoms: _375  and  _376
REMARK  157  A    between atoms: _376  and  _377
REMARK  158  A    between atoms: _377  and  _378
REMARK  159  A    between atoms: _382  and  _384
REMARK  160  A    between atoms: _384  and  _385
REMARK  161  A    between atoms: _387  and  _389
REMARK  162  A    between atoms: _389  and  _390
REMARK  163  A    between atoms: _389  and  _392
REMARK  164  A    between atoms: _392  and  _393
REMARK  165  A    between atoms: _396  and  _398
REMARK  166  A    between atoms: _398  and  _399
REMARK  167  A    between atoms: _398  and  _401
REMARK  168  A    between atoms: _401  and  _402
REMARK  169  A    between atoms: _404  and  _406
REMARK  170  A    between atoms: _406  and  _407
REMARK  171  A    between atoms: _409  and  _411
REMARK  172  A    between atoms: _411  and  _412
REMARK  173  A    between atoms: _414  and  _416
REMARK  174  A    between atoms: _416  and  _417
REMARK  175  A    between atoms: _416  and  _419
REMARK  176  A    between atoms: _419  and  _420
REMARK  177  A    between atoms: _423  and  _425
REMARK  178  A    between atoms: _425  and  _426
REMARK  179  A    between atoms: _425  and  _428
REMARK  180  A    between atoms: _428  and  _429
REMARK  181  A    between atoms: _432  and  _434
REMARK  182  A    between atoms: _434  and  _435
REMARK  183  A    between atoms: _434  and  _437
REMARK  184  A    between atoms: _437  and  _438
REMARK  185  A    between atoms: _440  and  _442
REMARK  186  A    between atoms: _442  and  _443
REMARK  187  A    between atoms: _442  and  _445
REMARK  188  A    between atoms: _445  and  _446
REMARK  189  A    between atoms: _456  and  _458
REMARK  190  A    between atoms: _458  and  _459
REMARK  191  A    between atoms: _461  and  _463
REMARK  192  A    between atoms: _463  and  _464
REMARK  193  A    between atoms: _463  and  _466
REMARK  194  A    between atoms: _466  and  _467
REMARK  195  A    between atoms: _467  and  _468
REMARK  196  A    between atoms: _471  and  _473
REMARK  197  A    between atoms: _473  and  _474
REMARK  198  A    between atoms: _476  and  _478
REMARK  199  A    between atoms: _478  and  _479
REMARK  200  A    between atoms: _478  and  _481
REMARK  201  A    between atoms: _481  and  _482
REMARK  202  A    between atoms: _483  and  _485
REMARK  203  A    between atoms: _485  and  _486
REMARK  204  A    between atoms: _489  and  _491
REMARK  205  A    between atoms: _491  and  _492
REMARK  206  A    between atoms: _491  and  _494
REMARK  207  A    between atoms: _494  and  _495
REMARK  208  A    between atoms: _495  and  _496
REMARK  209  A    between atoms: _501  and  _503
REMARK  210  A    between atoms: _503  and  _504
REMARK  211  A    between atoms: _503  and  _506
REMARK  212  A    between atoms: _506  and  _507
REMARK  213  A    between atoms: _507  and  _508
REMARK  214  A    between atoms: _508  and  _509
REMARK  215  A    between atoms: _519  and  _520
REMARK  216  A    between atoms: _525  and  _527
REMARK  217  A    between atoms: _527  and  _528
REMARK  218  A    between atoms: _530  and  _532
REMARK  219  A    between atoms: _532  and  _533
REMARK  220  A    between atoms: _532  and  _535
REMARK  221  A    between atoms: _538  and  _540
REMARK  222  A    between atoms: _540  and  _541
REMARK  223  A    between atoms: _540  and  _543
REMARK  224  A    between atoms: _543  and  _544
REMARK  225  A    between atoms: _549  and  _550
REMARK                            x       y       z     vdW  Elec       q    Type
REMARK                         _______ _______ _______ _____ _____    ______ ____
ROOT
ATOM      1  O   HOH     1      51.094 -18.800  29.764  0.00  0.00    +0.000 OA
ENDROOT
TORSDOF 0
REMARK  Name = ../refined-set-2016/4ty6/4ty6_pocket.pdb
REMARK  225 active torsions:
REMARK  status: ('A' for Active; 'I' for Inactive)
REMARK    1  A    between atoms: _1  and  _5
REMARK    2  A    between atoms: _5  and  _6
REMARK    3  A    between atoms: _5  and  _8
REMARK    4  A    between atoms: _8  and  _9
REMARK    5  A    between atoms: _12  and  _14
REMARK    6  A    between atoms: _14  and  _15
REMARK    7  A    between atoms: _14  and  _17
REMARK    8  A    between atoms: _20  and  _22
REMARK    9  A    between atoms: _22  and  _23
REMARK   10  A    between atoms: _22  and  _25
REMARK   11  A    between atoms: _25  and  _26
REMARK   12  A    between atoms: _29  and  _31
REMARK   13  A    between atoms: _31  and  _32
REMARK   14  A    between atoms: _31  and  _34
REMARK   15  A    between atoms: _34  and  _35
REMARK   16  A    between atoms: _38  and  _40
REMARK   17  A    between atoms: _40  and  _41
REMARK   18  A    between atoms: _40  and  _43
REMARK   19  A    between atoms: _43  and  _44
REMARK   20  A    between atoms: _49  and  _51
REMARK   21  A    between atoms: _51  and  _52
REMARK   22  A    between atoms: _51  and  _54
REMARK   23  A    between atoms: _54  and  _55
REMARK   24  A    between atoms: _58  and  _60
REMARK   25  A    between atoms: _60  and  _61
REMARK   26  A    between atoms: _60  and  _63
REMARK   27  A    between atoms: _63  and  _64
REMARK   28  A    between atoms: _67  and  _69
REMARK   29  A    between atoms: _69  and  _70
REMARK   30  A    between atoms: _69  and  _72
REMARK   31  A    between atoms: _72  and  _73
REMARK   32  A    between atoms: _73  and  _74
REMARK   33  A    between atoms: _79  and  _81
REMARK   34  A    between atoms: _81  and  _82
REMARK   35  A    between atoms: _81  and  _84
REMARK   36  A    between atoms: _84  and  _85
REMARK   37  A    between atoms: _85  and  _86
REMARK   38  A    between atoms: _86  and  _87
REMARK   39  A    between atoms: _96  and  _98
REMARK   40  A    between atoms: _98  and  _99
REMARK   41  A    between atoms: _98  and  _101
REMARK   42  A    between atoms: _101  and  _102
REMARK   43  A    between atoms: _107  and  _109
REMARK   44  A    between atoms: _109  and  _110
REMARK   45  A    between atoms: _109  and  _112
REMARK   46  A    between atoms: _112  and  _113
REMARK   47  A    between atoms: _116  and  _118
REMARK   48  A    between atoms: _118  and  _119
REMARK   49  A    between atoms: _118  and  _121
REMARK   50  A    between atoms: _121  and  _122
REMARK   51  A    between atoms: _122  and  _157
REMARK   52  A    between atoms: _123  and  _125
REMARK   53  A    between atoms: _125  and  _126
REMARK   54  A    between atoms: _128  and  _130
REMARK   55  A    between atoms: _130  and  _131
REMARK   56  A    between atoms: _134  and  _136
REMARK   57  A    between atoms: _136  and  _137
REMARK   58  A    between atoms: _140  and  _142
REMARK   59  A    between atoms: _142  and  _143
REMARK   60  A    between atoms: _142  and  _145
REMARK   61  A    between atoms: _145  and  _146
REMARK   62  A    between atoms: _151  and  _153
REMARK   63  A    between atoms: _153  and  _154
REMARK   64  A    between atoms: _153  and  _156
REMARK   65  A    between atoms: _156  and  _157
REMARK   66  A    between atoms: _158  and  _160
REMARK   67  A    between atoms: _160  and  _161
REMARK   68  A    between atoms: _160  and  _163
REMARK   69  A    between atoms: _163  and  _164
REMARK   70  A    between atoms: _170  and  _172
REMARK   71  A    between atoms: _172  and  _173
REMARK   72  A    between atoms: _172  and  _175
REMARK   73  A    between atoms: _175  and  _176
REMARK   74  A    between atoms: _181  and  _182
REMARK   75  A    between atoms: _184  and  _186
REMARK   76  A    between atoms: _186  and  _187
REMARK   77  A    between atoms: _186  and  _189
REMARK   78  A    between atoms: _192  and  _194
REMARK   79  A    between atoms: _194  and  _195
REMARK   80  A    between atoms: _194  and  _197
REMARK   81  A    between atoms: _197  and  _198
REMARK   82  A    between atoms: _198  and  _199
REMARK   83  A    between atoms: _204  and  _206
REMARK   84  A    between atoms: _206  and  _207
REMARK   85  A    between atoms: _210  and  _212
REMARK   86  A    between atoms: _212  and  _213
REMARK   87  A    between atoms: _212  and  _215
REMARK   88  A    between atoms: _215  and  _216
REMARK   89  A    between atoms: _219  and  _221
REMARK   90  A    between atoms: _221  and  _222
REMARK   91  A    between atoms: _221  and  _224
REMARK   92  A    between atoms: _227  and  _229
REMARK   93  A    between atoms: _229  and  _230
REMARK   94  A    between atoms: _229  and  _232
REMARK   95  A    between atoms: _232  and  _233
REMARK   96  A    between atoms: _243  and  _245
REMARK   97  A    between atoms: _245  and  _246
REMARK   98  A    between atoms: _248  and  _250
REMARK   99  A    between atoms: _250  and  _251
REMARK  100  A    between atoms: _250  and  _253
REMARK  101  A    between atoms: _253  and  _254
REMARK  102  A    between atoms: _259  and  _260
REMARK  103  A    between atoms: _262  and  _264
REMARK  104  A    between atoms: _264  and  _265
REMARK  105  A    between atoms: _264  and  _267
REMARK  106  A    between atoms: _267  and  _268
REMARK  107  A    between atoms: _271  and  _273
REMARK  108  A    between atoms: _273  and  _274
REMARK  109  A    between atoms: _273  and  _276
REMARK  110  A    between atoms: _276  and  _277
REMARK  111  A    between atoms: _280  and  _282
REMARK  112  A    between atoms: _282  and  _283
REMARK  113  A    between atoms: _282  and  _285
REMARK  114  A    between atoms: _285  and  _286
REMARK  115  A    between atoms: _286  and  _287
REMARK  116  A    between atoms: _287  and  _288
REMARK  117  A    between atoms: _288  and  _289
REMARK  118  A    between atoms: _293  and  _295
REMARK  119  A    between atoms: _295  and  _296
REMARK  120  A    between atoms: _295  and  _298
REMARK  121  A    between atoms: _298  and  _299
REMARK  122  A    between atoms: _302  and  _304
REMARK  123  A    between atoms: _304  and  _305
REMARK  124  A    between atoms: _304  and  _307
REMARK  125  A    between atoms: _307  and  _308
REMARK  126  A    between atoms: _308  and  _309
REMARK  127  A    between atoms: _314  and  _316
REMARK  128  A    between atoms: _316  and  _317
REMARK  129  A    between atoms: _316  and  _319
REMARK  130  A    between atoms: _319  and  _320
REMARK  131  A    between atoms: _325  and  _326
REMARK  132  A    between atoms: _328  and  _330
REMARK  133  A    between atoms: _330  and  _331
REMARK  134  A    between atoms: _334  and  _336
REMARK  135  A    between atoms: _336  and  _337
REMARK  136  A    between atoms: _336  and  _339
REMARK  137  A    between atoms: _339  and  _340
REMARK  138  A    between atoms: _340  and  _341
REMARK  139  A    between atoms: _341  and  _342
REMARK  140  A    between atoms: _342  and  _343
REMARK  141  A    between atoms: _347  and  _349
REMARK  142  A    between atoms: _349  and  _350
REMARK  143  A    between atoms: _349  and  _352
REMARK  144  A    between atoms: _352  and  _353
REMARK  145  A    between atoms: _356  and  _358
REMARK  146  A    between atoms: _358  and  _359
REMARK  147  A    between atoms: _362  and  _364
REMARK  148  A    between atoms: _364  and  _365
REMARK  149  A    between atoms: _364  and  _367
REMARK  150  A    between atoms: _367  and  _368
REMARK  151  A    between atoms: _368  and  _482
REMARK  152  A    between atoms: _369  and  _371
REMARK  153  A    between atoms: _371  and  _372
REMARK  154  A    between atoms: _371  and  _374
REMARK  155  A    between atoms: _374  and  _375
REMARK  156  A    between atoms: _375  and  _376
REMARK  157  A    between atoms: _376  and  _377
REMARK  158  A    between atoms: _377  and  _378
REMARK  159  A    between atoms: _382  and  _384
REMARK  160  A    between atoms: _384  and  _385
REMARK  161  A    between atoms: _387  and  _389
REMARK  162  A    between atoms: _389  and  _390
REMARK  163  A    between atoms: _389  and  _392
REMARK  164  A    between atoms: _392  and  _393
REMARK  165  A    between atoms: _396  and  _398
REMARK  166  A    between atoms: _398  and  _399
REMARK  167  A    between atoms: _398  and  _401
REMARK  168  A    between atoms: _401  and  _402
REMARK  169  A    between atoms: _404  and  _406
REMARK  170  A    between atoms: _406  and  _407
REMARK  171  A    between atoms: _409  and  _411
REMARK  172  A    between atoms: _411  and  _412
REMARK  173  A    between atoms: _414  and  _416
REMARK  174  A    between atoms: _416  and  _417
REMARK  175  A    between atoms: _416  and  _419
REMARK  176  A    between atoms: _419  and  _420
REMARK  177  A    between atoms: _423  and  _425
REMARK  178  A    between atoms: _425  and  _426
REMARK  179  A    between atoms: _425  and  _428
REMARK  180  A    between atoms: _428  and  _429
REMARK  181  A    between atoms: _432  and  _434
REMARK  182  A    between atoms: _434  and  _435
REMARK  183  A    between atoms: _434  and  _437
REMARK  184  A    between atoms: _437  and  _438
REMARK  185  A    between atoms: _440  and  _442
REMARK  186  A    between atoms: _442  and  _443
REMARK  187  A    between atoms: _442  and  _445
REMARK  188  A    between atoms: _445  and  _446
REMARK  189  A    between atoms: _456  and  _458
REMARK  190  A    between atoms: _458  and  _459
REMARK  191  A    between atoms: _461  and  _463
REMARK  192  A    between atoms: _463  and  _464
REMARK  193  A    between atoms: _463  and  _466
REMARK  194  A    between atoms: _466  and  _467
REMARK  195  A    between atoms: _467  and  _468
REMARK  196  A    between atoms: _471  and  _473
REMARK  197  A    between atoms: _473  and  _474
REMARK  198  A    between atoms: _476  and  _478
REMARK  199  A    between atoms: _478  and  _479
REMARK  200  A    between atoms: _478  and  _481
REMARK  201  A    between atoms: _481  and  _482
REMARK  202  A    between atoms: _483  and  _485
REMARK  203  A    between atoms: _485  and  _486
REMARK  204  A    between atoms: _489  and  _491
REMARK  205  A    between atoms: _491  and  _492
REMARK  206  A    between atoms: _491  and  _494
REMARK  207  A    between atoms: _494  and  _495
REMARK  208  A    between atoms: _495  and  _496
REMARK  209  A    between atoms: _501  and  _503
REMARK  210  A    between atoms: _503  and  _504
REMARK  211  A    between atoms: _503  and  _506
REMARK  212  A    between atoms: _506  and  _507
REMARK  213  A    between atoms: _507  and  _508
REMARK  214  A    between atoms: _508  and  _509
REMARK  215  A    between atoms: _519  and  _520
REMARK  216  A    between atoms: _525  and  _527
REMARK  217  A    between atoms: _527  and  _528
REMARK  218  A    between atoms: _530  and  _532
REMARK  219  A    between atoms: _532  and  _533
REMARK  220  A    between atoms: _532  and  _535
REMARK  221  A    between atoms: _538  and  _540
REMARK  222  A    between atoms: _540  and  _541
REMARK  223  A    between atoms: _540  and  _543
REMARK  224  A    between atoms: _543  and  _544
REMARK  225  A    between atoms: _549  and  _550
REMARK                            x       y       z     vdW  Elec       q    Type
REMARK                         _______ _______ _______ _____ _____    ______ ____
ROOT
ATOM      1  O   HOH     1      51.452 -18.708  39.054  0.00  0.00    +0.000 OA
ENDROOT
TORSDOF 0
REMARK  Name = ../refined-set-2016/4ty6/4ty6_pocket.pdb
REMARK  225 active torsions:
REMARK  status: ('A' for Active; 'I' for Inactive)
REMARK    1  A    between atoms: _1  and  _5
REMARK    2  A    between atoms: _5  and  _6
REMARK    3  A    between atoms: _5  and  _8
REMARK    4  A    between atoms: _8  and  _9
REMARK    5  A    between atoms: _12  and  _14
REMARK    6  A    between atoms: _14  and  _15
REMARK    7  A    between atoms: _14  and  _17
REMARK    8  A    between atoms: _20  and  _22
REMARK    9  A    between atoms: _22  and  _23
REMARK   10  A    between atoms: _22  and  _25
REMARK   11  A    between atoms: _25  and  _26
REMARK   12  A    between atoms: _29  and  _31
REMARK   13  A    between atoms: _31  and  _32
REMARK   14  A    between atoms: _31  and  _34
REMARK   15  A    between atoms: _34  and  _35
REMARK   16  A    between atoms: _38  and  _40
REMARK   17  A    between atoms: _40  and  _41
REMARK   18  A    between atoms: _40  and  _43
REMARK   19  A    between atoms: _43  and  _44
REMARK   20  A    between atoms: _49  and  _51
REMARK   21  A    between atoms: _51  and  _52
REMARK   22  A    between atoms: _51  and  _54
REMARK   23  A    between atoms: _54  and  _55
REMARK   24  A    between atoms: _58  and  _60
REMARK   25  A    between atoms: _60  and  _61
REMARK   26  A    between atoms: _60  and  _63
REMARK   27  A    between atoms: _63  and  _64
REMARK   28  A    between atoms: _67  and  _69
REMARK   29  A    between atoms: _69  and  _70
REMARK   30  A    between atoms: _69  and  _72
REMARK   31  A    between atoms: _72  and  _73
REMARK   32  A    between atoms: _73  and  _74
REMARK   33  A    between atoms: _79  and  _81
REMARK   34  A    between atoms: _81  and  _82
REMARK   35  A    between atoms: _81  and  _84
REMARK   36  A    between atoms: _84  and  _85
REMARK   37  A    between atoms: _85  and  _86
REMARK   38  A    between atoms: _86  and  _87
REMARK   39  A    between atoms: _96  and  _98
REMARK   40  A    between atoms: _98  and  _99
REMARK   41  A    between atoms: _98  and  _101
REMARK   42  A    between atoms: _101  and  _102
REMARK   43  A    between atoms: _107  and  _109
REMARK   44  A    between atoms: _109  and  _110
REMARK   45  A    between atoms: _109  and  _112
REMARK   46  A    between atoms: _112  and  _113
REMARK   47  A    between atoms: _116  and  _118
REMARK   48  A    between atoms: _118  and  _119
REMARK   49  A    between atoms: _118  and  _121
REMARK   50  A    between atoms: _121  and  _122
REMARK   51  A    between atoms: _122  and  _157
REMARK   52  A    between atoms: _123  and  _125
REMARK   53  A    between atoms: _125  and  _126
REMARK   54  A    between atoms: _128  and  _130
REMARK   55  A    between atoms: _130  and  _131
REMARK   56  A    between atoms: _134  and  _136
REMARK   57  A    between atoms: _136  and  _137
REMARK   58  A    between atoms: _140  and  _142
REMARK   59  A    between atoms: _142  and  _143
REMARK   60  A    between atoms: _142  and  _145
REMARK   61  A    between atoms: _145  and  _146
REMARK   62  A    between atoms: _151  and  _153
REMARK   63  A    between atoms: _153  and  _154
REMARK   64  A    between atoms: _153  and  _156
REMARK   65  A    between atoms: _156  and  _157
REMARK   66  A    between atoms: _158  and  _160
REMARK   67  A    between atoms: _160  and  _161
REMARK   68  A    between atoms: _160  and  _163
REMARK   69  A    between atoms: _163  and  _164
REMARK   70  A    between atoms: _170  and  _172
REMARK   71  A    between atoms: _172  and  _173
REMARK   72  A    between atoms: _172  and  _175
REMARK   73  A    between atoms: _175  and  _176
REMARK   74  A    between atoms: _181  and  _182
REMARK   75  A    between atoms: _184  and  _186
REMARK   76  A    between atoms: _186  and  _187
REMARK   77  A    between atoms: _186  and  _189
REMARK   78  A    between atoms: _192  and  _194
REMARK   79  A    between atoms: _194  and  _195
REMARK   80  A    between atoms: _194  and  _197
REMARK   81  A    between atoms: _197  and  _198
REMARK   82  A    between atoms: _198  and  _199
REMARK   83  A    between atoms: _204  and  _206
REMARK   84  A    between atoms: _206  and  _207
REMARK   85  A    between atoms: _210  and  _212
REMARK   86  A    between atoms: _212  and  _213
REMARK   87  A    between atoms: _212  and  _215
REMARK   88  A    between atoms: _215  and  _216
REMARK   89  A    between atoms: _219  and  _221
REMARK   90  A    between atoms: _221  and  _222
REMARK   91  A    between atoms: _221  and  _224
REMARK   92  A    between atoms: _227  and  _229
REMARK   93  A    between atoms: _229  and  _230
REMARK   94  A    between atoms: _229  and  _232
REMARK   95  A    between atoms: _232  and  _233
REMARK   96  A    between atoms: _243  and  _245
REMARK   97  A    between atoms: _245  and  _246
REMARK   98  A    between atoms: _248  and  _250
REMARK   99  A    between atoms: _250  and  _251
REMARK  100  A    between atoms: _250  and  _253
REMARK  101  A    between atoms: _253  and  _254
REMARK  102  A    between atoms: _259  and  _260
REMARK  103  A    between atoms: _262  and  _264
REMARK  104  A    between atoms: _264  and  _265
REMARK  105  A    between atoms: _264  and  _267
REMARK  106  A    between atoms: _267  and  _268
REMARK  107  A    between atoms: _271  and  _273
REMARK  108  A    between atoms: _273  and  _274
REMARK  109  A    between atoms: _273  and  _276
REMARK  110  A    between atoms: _276  and  _277
REMARK  111  A    between atoms: _280  and  _282
REMARK  112  A    between atoms: _282  and  _283
REMARK  113  A    between atoms: _282  and  _285
REMARK  114  A    between atoms: _285  and  _286
REMARK  115  A    between atoms: _286  and  _287
REMARK  116  A    between atoms: _287  and  _288
REMARK  117  A    between atoms: _288  and  _289
REMARK  118  A    between atoms: _293  and  _295
REMARK  119  A    between atoms: _295  and  _296
REMARK  120  A    between atoms: _295  and  _298
REMARK  121  A    between atoms: _298  and  _299
REMARK  122  A    between atoms: _302  and  _304
REMARK  123  A    between atoms: _304  and  _305
REMARK  124  A    between atoms: _304  and  _307
REMARK  125  A    between atoms: _307  and  _308
REMARK  126  A    between atoms: _308  and  _309
REMARK  127  A    between atoms: _314  and  _316
REMARK  128  A    between atoms: _316  and  _317
REMARK  129  A    between atoms: _316  and  _319
REMARK  130  A    between atoms: _319  and  _320
REMARK  131  A    between atoms: _325  and  _326
REMARK  132  A    between atoms: _328  and  _330
REMARK  133  A    between atoms: _330  and  _331
REMARK  134  A    between atoms: _334  and  _336
REMARK  135  A    between atoms: _336  and  _337
REMARK  136  A    between atoms: _336  and  _339
REMARK  137  A    between atoms: _339  and  _340
REMARK  138  A    between atoms: _340  and  _341
REMARK  139  A    between atoms: _341  and  _342
REMARK  140  A    between atoms: _342  and  _343
REMARK  141  A    between atoms: _347  and  _349
REMARK  142  A    between atoms: _349  and  _350
REMARK  143  A    between atoms: _349  and  _352
REMARK  144  A    between atoms: _352  and  _353
REMARK  145  A    between atoms: _356  and  _358
REMARK  146  A    between atoms: _358  and  _359
REMARK  147  A    between atoms: _362  and  _364
REMARK  148  A    between atoms: _364  and  _365
REMARK  149  A    between atoms: _364  and  _367
REMARK  150  A    between atoms: _367  and  _368
REMARK  151  A    between atoms: _368  and  _482
REMARK  152  A    between atoms: _369  and  _371
REMARK  153  A    between atoms: _371  and  _372
REMARK  154  A    between atoms: _371  and  _374
REMARK  155  A    between atoms: _374  and  _375
REMARK  156  A    between atoms: _375  and  _376
REMARK  157  A    between atoms: _376  and  _377
REMARK  158  A    between atoms: _377  and  _378
REMARK  159  A    between atoms: _382  and  _384
REMARK  160  A    between atoms: _384  and  _385
REMARK  161  A    between atoms: _387  and  _389
REMARK  162  A    between atoms: _389  and  _390
REMARK  163  A    between atoms: _389  and  _392
REMARK  164  A    between atoms: _392  and  _393
REMARK  165  A    between atoms: _396  and  _398
REMARK  166  A    between atoms: _398  and  _399
REMARK  167  A    between atoms: _398  and  _401
REMARK  168  A    between atoms: _401  and  _402
REMARK  169  A    between atoms: _404  and  _406
REMARK  170  A    between atoms: _406  and  _407
REMARK  171  A    between atoms: _409  and  _411
REMARK  172  A    between atoms: _411  and  _412
REMARK  173  A    between atoms: _414  and  _416
REMARK  174  A    between atoms: _416  and  _417
REMARK  175  A    between atoms: _416  and  _419
REMARK  176  A    between atoms: _419  and  _420
REMARK  177  A    between atoms: _423  and  _425
REMARK  178  A    between atoms: _425  and  _426
REMARK  179  A    between atoms: _425  and  _428
REMARK  180  A    between atoms: _428  and  _429
REMARK  181  A    between atoms: _432  and  _434
REMARK  182  A    between atoms: _434  and  _435
REMARK  183  A    between atoms: _434  and  _437
REMARK  184  A    between atoms: _437  and  _438
REMARK  185  A    between atoms: _440  and  _442
REMARK  186  A    between atoms: _442  and  _443
REMARK  187  A    between atoms: _442  and  _445
REMARK  188  A    between atoms: _445  and  _446
REMARK  189  A    between atoms: _456  and  _458
REMARK  190  A    between atoms: _458  and  _459
REMARK  191  A    between atoms: _461  and  _463
REMARK  192  A    between atoms: _463  and  _464
REMARK  193  A    between atoms: _463  and  _466
REMARK  194  A    between atoms: _466  and  _467
REMARK  195  A    between atoms: _467  and  _468
REMARK  196  A    between atoms: _471  and  _473
REMARK  197  A    between atoms: _473  and  _474
REMARK  198  A    between atoms: _476  and  _478
REMARK  199  A    between atoms: _478  and  _479
REMARK  200  A    between atoms: _478  and  _481
REMARK  201  A    between atoms: _481  and  _482
REMARK  202  A    between atoms: _483  and  _485
REMARK  203  A    between atoms: _485  and  _486
REMARK  204  A    between atoms: _489  and  _491
REMARK  205  A    between atoms: _491  and  _492
REMARK  206  A    between atoms: _491  and  _494
REMARK  207  A    between atoms: _494  and  _495
REMARK  208  A    between atoms: _495  and  _496
REMARK  209  A    between atoms: _501  and  _503
REMARK  210  A    between atoms: _503  and  _504
REMARK  211  A    between atoms: _503  and  _506
REMARK  212  A    between atoms: _506  and  _507
REMARK  213  A    between atoms: _507  and  _508
REMARK  214  A    between atoms: _508  and  _509
REMARK  215  A    between atoms: _519  and  _520
REMARK  216  A    between atoms: _525  and  _527
REMARK  217  A    between atoms: _527  and  _528
REMARK  218  A    between atoms: _530  and  _532
REMARK  219  A    between atoms: _532  and  _533
REMARK  220  A    between atoms: _532  and  _535
REMARK  221  A    between atoms: _538  and  _540
REMARK  222  A    between atoms: _540  and  _541
REMARK  223  A    between atoms: _540  and  _543
REMARK  224  A    between atoms: _543  and  _544
REMARK  225  A    between atoms: _549  and  _550
REMARK                            x       y       z     vdW  Elec       q    Type
REMARK                         _______ _______ _______ _____ _____    ______ ____
ROOT
ATOM      1  O   HOH     1      51.177 -16.331  26.481  0.00  0.00    +0.000 OA
ENDROOT
TORSDOF 0
REMARK  Name = ../refined-set-2016/4ty6/4ty6_pocket.pdb
REMARK  225 active torsions:
REMARK  status: ('A' for Active; 'I' for Inactive)
REMARK    1  A    between atoms: _1  and  _5
REMARK    2  A    between atoms: _5  and  _6
REMARK    3  A    between atoms: _5  and  _8
REMARK    4  A    between atoms: _8  and  _9
REMARK    5  A    between atoms: _12  and  _14
REMARK    6  A    between atoms: _14  and  _15
REMARK    7  A    between atoms: _14  and  _17
REMARK    8  A    between atoms: _20  and  _22
REMARK    9  A    between atoms: _22  and  _23
REMARK   10  A    between atoms: _22  and  _25
REMARK   11  A    between atoms: _25  and  _26
REMARK   12  A    between atoms: _29  and  _31
REMARK   13  A    between atoms: _31  and  _32
REMARK   14  A    between atoms: _31  and  _34
REMARK   15  A    between atoms: _34  and  _35
REMARK   16  A    between atoms: _38  and  _40
REMARK   17  A    between atoms: _40  and  _41
REMARK   18  A    between atoms: _40  and  _43
REMARK   19  A    between atoms: _43  and  _44
REMARK   20  A    between atoms: _49  and  _51
REMARK   21  A    between atoms: _51  and  _52
REMARK   22  A    between atoms: _51  and  _54
REMARK   23  A    between atoms: _54  and  _55
REMARK   24  A    between atoms: _58  and  _60
REMARK   25  A    between atoms: _60  and  _61
REMARK   26  A    between atoms: _60  and  _63
REMARK   27  A    between atoms: _63  and  _64
REMARK   28  A    between atoms: _67  and  _69
REMARK   29  A    between atoms: _69  and  _70
REMARK   30  A    between atoms: _69  and  _72
REMARK   31  A    between atoms: _72  and  _73
REMARK   32  A    between atoms: _73  and  _74
REMARK   33  A    between atoms: _79  and  _81
REMARK   34  A    between atoms: _81  and  _82
REMARK   35  A    between atoms: _81  and  _84
REMARK   36  A    between atoms: _84  and  _85
REMARK   37  A    between atoms: _85  and  _86
REMARK   38  A    between atoms: _86  and  _87
REMARK   39  A    between atoms: _96  and  _98
REMARK   40  A    between atoms: _98  and  _99
REMARK   41  A    between atoms: _98  and  _101
REMARK   42  A    between atoms: _101  and  _102
REMARK   43  A    between atoms: _107  and  _109
REMARK   44  A    between atoms: _109  and  _110
REMARK   45  A    between atoms: _109  and  _112
REMARK   46  A    between atoms: _112  and  _113
REMARK   47  A    between atoms: _116  and  _118
REMARK   48  A    between atoms: _118  and  _119
REMARK   49  A    between atoms: _118  and  _121
REMARK   50  A    between atoms: _121  and  _122
REMARK   51  A    between atoms: _122  and  _157
REMARK   52  A    between atoms: _123  and  _125
REMARK   53  A    between atoms: _125  and  _126
REMARK   54  A    between atoms: _128  and  _130
REMARK   55  A    between atoms: _130  and  _131
REMARK   56  A    between atoms: _134  and  _136
REMARK   57  A    between atoms: _136  and  _137
REMARK   58  A    between atoms: _140  and  _142
REMARK   59  A    between atoms: _142  and  _143
REMARK   60  A    between atoms: _142  and  _145
REMARK   61  A    between atoms: _145  and  _146
REMARK   62  A    between atoms: _151  and  _153
REMARK   63  A    between atoms: _153  and  _154
REMARK   64  A    between atoms: _153  and  _156
REMARK   65  A    between atoms: _156  and  _157
REMARK   66  A    between atoms: _158  and  _160
REMARK   67  A    between atoms: _160  and  _161
REMARK   68  A    between atoms: _160  and  _163
REMARK   69  A    between atoms: _163  and  _164
REMARK   70  A    between atoms: _170  and  _172
REMARK   71  A    between atoms: _172  and  _173
REMARK   72  A    between atoms: _172  and  _175
REMARK   73  A    between atoms: _175  and  _176
REMARK   74  A    between atoms: _181  and  _182
REMARK   75  A    between atoms: _184  and  _186
REMARK   76  A    between atoms: _186  and  _187
REMARK   77  A    between atoms: _186  and  _189
REMARK   78  A    between atoms: _192  and  _194
REMARK   79  A    between atoms: _194  and  _195
REMARK   80  A    between atoms: _194  and  _197
REMARK   81  A    between atoms: _197  and  _198
REMARK   82  A    between atoms: _198  and  _199
REMARK   83  A    between atoms: _204  and  _206
REMARK   84  A    between atoms: _206  and  _207
REMARK   85  A    between atoms: _210  and  _212
REMARK   86  A    between atoms: _212  and  _213
REMARK   87  A    between atoms: _212  and  _215
REMARK   88  A    between atoms: _215  and  _216
REMARK   89  A    between atoms: _219  and  _221
REMARK   90  A    between atoms: _221  and  _222
REMARK   91  A    between atoms: _221  and  _224
REMARK   92  A    between atoms: _227  and  _229
REMARK   93  A    between atoms: _229  and  _230
REMARK   94  A    between atoms: _229  and  _232
REMARK   95  A    between atoms: _232  and  _233
REMARK   96  A    between atoms: _243  and  _245
REMARK   97  A    between atoms: _245  and  _246
REMARK   98  A    between atoms: _248  and  _250
REMARK   99  A    between atoms: _250  and  _251
REMARK  100  A    between atoms: _250  and  _253
REMARK  101  A    between atoms: _253  and  _254
REMARK  102  A    between atoms: _259  and  _260
REMARK  103  A    between atoms: _262  and  _264
REMARK  104  A    between atoms: _264  and  _265
REMARK  105  A    between atoms: _264  and  _267
REMARK  106  A    between atoms: _267  and  _268
REMARK  107  A    between atoms: _271  and  _273
REMARK  108  A    between atoms: _273  and  _274
REMARK  109  A    between atoms: _273  and  _276
REMARK  110  A    between atoms: _276  and  _277
REMARK  111  A    between atoms: _280  and  _282
REMARK  112  A    between atoms: _282  and  _283
REMARK  113  A    between atoms: _282  and  _285
REMARK  114  A    between atoms: _285  and  _286
REMARK  115  A    between atoms: _286  and  _287
REMARK  116  A    between atoms: _287  and  _288
REMARK  117  A    between atoms: _288  and  _289
REMARK  118  A    between atoms: _293  and  _295
REMARK  119  A    between atoms: _295  and  _296
REMARK  120  A    between atoms: _295  and  _298
REMARK  121  A    between atoms: _298  and  _299
REMARK  122  A    between atoms: _302  and  _304
REMARK  123  A    between atoms: _304  and  _305
REMARK  124  A    between atoms: _304  and  _307
REMARK  125  A    between atoms: _307  and  _308
REMARK  126  A    between atoms: _308  and  _309
REMARK  127  A    between atoms: _314  and  _316
REMARK  128  A    between atoms: _316  and  _317
REMARK  129  A    between atoms: _316  and  _319
REMARK  130  A    between atoms: _319  and  _320
REMARK  131  A    between atoms: _325  and  _326
REMARK  132  A    between atoms: _328  and  _330
REMARK  133  A    between atoms: _330  and  _331
REMARK  134  A    between atoms: _334  and  _336
REMARK  135  A    between atoms: _336  and  _337
REMARK  136  A    between atoms: _336  and  _339
REMARK  137  A    between atoms: _339  and  _340
REMARK  138  A    between atoms: _340  and  _341
REMARK  139  A    between atoms: _341  and  _342
REMARK  140  A    between atoms: _342  and  _343
REMARK  141  A    between atoms: _347  and  _349
REMARK  142  A    between atoms: _349  and  _350
REMARK  143  A    between atoms: _349  and  _352
REMARK  144  A    between atoms: _352  and  _353
REMARK  145  A    between atoms: _356  and  _358
REMARK  146  A    between atoms: _358  and  _359
REMARK  147  A    between atoms: _362  and  _364
REMARK  148  A    between atoms: _364  and  _365
REMARK  149  A    between atoms: _364  and  _367
REMARK  150  A    between atoms: _367  and  _368
REMARK  151  A    between atoms: _368  and  _482
REMARK  152  A    between atoms: _369  and  _371
REMARK  153  A    between atoms: _371  and  _372
REMARK  154  A    between atoms: _371  and  _374
REMARK  155  A    between atoms: _374  and  _375
REMARK  156  A    between atoms: _375  and  _376
REMARK  157  A    between atoms: _376  and  _377
REMARK  158  A    between atoms: _377  and  _378
REMARK  159  A    between atoms: _382  and  _384
REMARK  160  A    between atoms: _384  and  _385
REMARK  161  A    between atoms: _387  and  _389
REMARK  162  A    between atoms: _389  and  _390
REMARK  163  A    between atoms: _389  and  _392
REMARK  164  A    between atoms: _392  and  _393
REMARK  165  A    between atoms: _396  and  _398
REMARK  166  A    between atoms: _398  and  _399
REMARK  167  A    between atoms: _398  and  _401
REMARK  168  A    between atoms: _401  and  _402
REMARK  169  A    between atoms: _404  and  _406
REMARK  170  A    between atoms: _406  and  _407
REMARK  171  A    between atoms: _409  and  _411
REMARK  172  A    between atoms: _411  and  _412
REMARK  173  A    between atoms: _414  and  _416
REMARK  174  A    between atoms: _416  and  _417
REMARK  175  A    between atoms: _416  and  _419
REMARK  176  A    between atoms: _419  and  _420
REMARK  177  A    between atoms: _423  and  _425
REMARK  178  A    between atoms: _425  and  _426
REMARK  179  A    between atoms: _425  and  _428
REMARK  180  A    between atoms: _428  and  _429
REMARK  181  A    between atoms: _432  and  _434
REMARK  182  A    between atoms: _434  and  _435
REMARK  183  A    between atoms: _434  and  _437
REMARK  184  A    between atoms: _437  and  _438
REMARK  185  A    between atoms: _440  and  _442
REMARK  186  A    between atoms: _442  and  _443
REMARK  187  A    between atoms: _442  and  _445
REMARK  188  A    between atoms: _445  and  _446
REMARK  189  A    between atoms: _456  and  _458
REMARK  190  A    between atoms: _458  and  _459
REMARK  191  A    between atoms: _461  and  _463
REMARK  192  A    between atoms: _463  and  _464
REMARK  193  A    between atoms: _463  and  _466
REMARK  194  A    between atoms: _466  and  _467
REMARK  195  A    between atoms: _467  and  _468
REMARK  196  A    between atoms: _471  and  _473
REMARK  197  A    between atoms: _473  and  _474
REMARK  198  A    between atoms: _476  and  _478
REMARK  199  A    between atoms: _478  and  _479
REMARK  200  A    between atoms: _478  and  _481
REMARK  201  A    between atoms: _481  and  _482
REMARK  202  A    between atoms: _483  and  _485
REMARK  203  A    between atoms: _485  and  _486
REMARK  204  A    between atoms: _489  and  _491
REMARK  205  A    between atoms: _491  and  _492
REMARK  206  A    between atoms: _491  and  _494
REMARK  207  A    between atoms: _494  and  _495
REMARK  208  A    between atoms: _495  and  _496
REMARK  209  A    between atoms: _501  and  _503
REMARK  210  A    between atoms: _503  and  _504
REMARK  211  A    between atoms: _503  and  _506
REMARK  212  A    between atoms: _506  and  _507
REMARK  213  A    between atoms: _507  and  _508
REMARK  214  A    between atoms: _508  and  _509
REMARK  215  A    between atoms: _519  and  _520
REMARK  216  A    between atoms: _525  and  _527
REMARK  217  A    between atoms: _527  and  _528
REMARK  218  A    between atoms: _530  and  _532
REMARK  219  A    between atoms: _532  and  _533
REMARK  220  A    between atoms: _532  and  _535
REMARK  221  A    between atoms: _538  and  _540
REMARK  222  A    between atoms: _540  and  _541
REMARK  223  A    between atoms: _540  and  _543
REMARK  224  A    between atoms: _543  and  _544
REMARK  225  A    between atoms: _549  and  _550
REMARK                            x       y       z     vdW  Elec       q    Type
REMARK                         _______ _______ _______ _____ _____    ______ ____
ROOT
ATOM      1  O   HOH     1      36.661 -22.895  25.298  0.00  0.00    +0.000 OA
ENDROOT
TORSDOF 0
REMARK  Name = ../refined-set-2016/4ty6/4ty6_pocket.pdb
REMARK  225 active torsions:
REMARK  status: ('A' for Active; 'I' for Inactive)
REMARK    1  A    between atoms: _1  and  _5
REMARK    2  A    between atoms: _5  and  _6
REMARK    3  A    between atoms: _5  and  _8
REMARK    4  A    between atoms: _8  and  _9
REMARK    5  A    between atoms: _12  and  _14
REMARK    6  A    between atoms: _14  and  _15
REMARK    7  A    between atoms: _14  and  _17
REMARK    8  A    between atoms: _20  and  _22
REMARK    9  A    between atoms: _22  and  _23
REMARK   10  A    between atoms: _22  and  _25
REMARK   11  A    between atoms: _25  and  _26
REMARK   12  A    between atoms: _29  and  _31
REMARK   13  A    between atoms: _31  and  _32
REMARK   14  A    between atoms: _31  and  _34
REMARK   15  A    between atoms: _34  and  _35
REMARK   16  A    between atoms: _38  and  _40
REMARK   17  A    between atoms: _40  and  _41
REMARK   18  A    between atoms: _40  and  _43
REMARK   19  A    between atoms: _43  and  _44
REMARK   20  A    between atoms: _49  and  _51
REMARK   21  A    between atoms: _51  and  _52
REMARK   22  A    between atoms: _51  and  _54
REMARK   23  A    between atoms: _54  and  _55
REMARK   24  A    between atoms: _58  and  _60
REMARK   25  A    between atoms: _60  and  _61
REMARK   26  A    between atoms: _60  and  _63
REMARK   27  A    between atoms: _63  and  _64
REMARK   28  A    between atoms: _67  and  _69
REMARK   29  A    between atoms: _69  and  _70
REMARK   30  A    between atoms: _69  and  _72
REMARK   31  A    between atoms: _72  and  _73
REMARK   32  A    between atoms: _73  and  _74
REMARK   33  A    between atoms: _79  and  _81
REMARK   34  A    between atoms: _81  and  _82
REMARK   35  A    between atoms: _81  and  _84
REMARK   36  A    between atoms: _84  and  _85
REMARK   37  A    between atoms: _85  and  _86
REMARK   38  A    between atoms: _86  and  _87
REMARK   39  A    between atoms: _96  and  _98
REMARK   40  A    between atoms: _98  and  _99
REMARK   41  A    between atoms: _98  and  _101
REMARK   42  A    between atoms: _101  and  _102
REMARK   43  A    between atoms: _107  and  _109
REMARK   44  A    between atoms: _109  and  _110
REMARK   45  A    between atoms: _109  and  _112
REMARK   46  A    between atoms: _112  and  _113
REMARK   47  A    between atoms: _116  and  _118
REMARK   48  A    between atoms: _118  and  _119
REMARK   49  A    between atoms: _118  and  _121
REMARK   50  A    between atoms: _121  and  _122
REMARK   51  A    between atoms: _122  and  _157
REMARK   52  A    between atoms: _123  and  _125
REMARK   53  A    between atoms: _125  and  _126
REMARK   54  A    between atoms: _128  and  _130
REMARK   55  A    between atoms: _130  and  _131
REMARK   56  A    between atoms: _134  and  _136
REMARK   57  A    between atoms: _136  and  _137
REMARK   58  A    between atoms: _140  and  _142
REMARK   59  A    between atoms: _142  and  _143
REMARK   60  A    between atoms: _142  and  _145
REMARK   61  A    between atoms: _145  and  _146
REMARK   62  A    between atoms: _151  and  _153
REMARK   63  A    between atoms: _153  and  _154
REMARK   64  A    between atoms: _153  and  _156
REMARK   65  A    between atoms: _156  and  _157
REMARK   66  A    between atoms: _158  and  _160
REMARK   67  A    between atoms: _160  and  _161
REMARK   68  A    between atoms: _160  and  _163
REMARK   69  A    between atoms: _163  and  _164
REMARK   70  A    between atoms: _170  and  _172
REMARK   71  A    between atoms: _172  and  _173
REMARK   72  A    between atoms: _172  and  _175
REMARK   73  A    between atoms: _175  and  _176
REMARK   74  A    between atoms: _181  and  _182
REMARK   75  A    between atoms: _184  and  _186
REMARK   76  A    between atoms: _186  and  _187
REMARK   77  A    between atoms: _186  and  _189
REMARK   78  A    between atoms: _192  and  _194
REMARK   79  A    between atoms: _194  and  _195
REMARK   80  A    between atoms: _194  and  _197
REMARK   81  A    between atoms: _197  and  _198
REMARK   82  A    between atoms: _198  and  _199
REMARK   83  A    between atoms: _204  and  _206
REMARK   84  A    between atoms: _206  and  _207
REMARK   85  A    between atoms: _210  and  _212
REMARK   86  A    between atoms: _212  and  _213
REMARK   87  A    between atoms: _212  and  _215
REMARK   88  A    between atoms: _215  and  _216
REMARK   89  A    between atoms: _219  and  _221
REMARK   90  A    between atoms: _221  and  _222
REMARK   91  A    between atoms: _221  and  _224
REMARK   92  A    between atoms: _227  and  _229
REMARK   93  A    between atoms: _229  and  _230
REMARK   94  A    between atoms: _229  and  _232
REMARK   95  A    between atoms: _232  and  _233
REMARK   96  A    between atoms: _243  and  _245
REMARK   97  A    between atoms: _245  and  _246
REMARK   98  A    between atoms: _248  and  _250
REMARK   99  A    between atoms: _250  and  _251
REMARK  100  A    between atoms: _250  and  _253
REMARK  101  A    between atoms: _253  and  _254
REMARK  102  A    between atoms: _259  and  _260
REMARK  103  A    between atoms: _262  and  _264
REMARK  104  A    between atoms: _264  and  _265
REMARK  105  A    between atoms: _264  and  _267
REMARK  106  A    between atoms: _267  and  _268
REMARK  107  A    between atoms: _271  and  _273
REMARK  108  A    between atoms: _273  and  _274
REMARK  109  A    between atoms: _273  and  _276
REMARK  110  A    between atoms: _276  and  _277
REMARK  111  A    between atoms: _280  and  _282
REMARK  112  A    between atoms: _282  and  _283
REMARK  113  A    between atoms: _282  and  _285
REMARK  114  A    between atoms: _285  and  _286
REMARK  115  A    between atoms: _286  and  _287
REMARK  116  A    between atoms: _287  and  _288
REMARK  117  A    between atoms: _288  and  _289
REMARK  118  A    between atoms: _293  and  _295
REMARK  119  A    between atoms: _295  and  _296
REMARK  120  A    between atoms: _295  and  _298
REMARK  121  A    between atoms: _298  and  _299
REMARK  122  A    between atoms: _302  and  _304
REMARK  123  A    between atoms: _304  and  _305
REMARK  124  A    between atoms: _304  and  _307
REMARK  125  A    between atoms: _307  and  _308
REMARK  126  A    between atoms: _308  and  _309
REMARK  127  A    between atoms: _314  and  _316
REMARK  128  A    between atoms: _316  and  _317
REMARK  129  A    between atoms: _316  and  _319
REMARK  130  A    between atoms: _319  and  _320
REMARK  131  A    between atoms: _325  and  _326
REMARK  132  A    between atoms: _328  and  _330
REMARK  133  A    between atoms: _330  and  _331
REMARK  134  A    between atoms: _334  and  _336
REMARK  135  A    between atoms: _336  and  _337
REMARK  136  A    between atoms: _336  and  _339
REMARK  137  A    between atoms: _339  and  _340
REMARK  138  A    between atoms: _340  and  _341
REMARK  139  A    between atoms: _341  and  _342
REMARK  140  A    between atoms: _342  and  _343
REMARK  141  A    between atoms: _347  and  _349
REMARK  142  A    between atoms: _349  and  _350
REMARK  143  A    between atoms: _349  and  _352
REMARK  144  A    between atoms: _352  and  _353
REMARK  145  A    between atoms: _356  and  _358
REMARK  146  A    between atoms: _358  and  _359
REMARK  147  A    between atoms: _362  and  _364
REMARK  148  A    between atoms: _364  and  _365
REMARK  149  A    between atoms: _364  and  _367
REMARK  150  A    between atoms: _367  and  _368
REMARK  151  A    between atoms: _368  and  _482
REMARK  152  A    between atoms: _369  and  _371
REMARK  153  A    between atoms: _371  and  _372
REMARK  154  A    between atoms: _371  and  _374
REMARK  155  A    between atoms: _374  and  _375
REMARK  156  A    between atoms: _375  and  _376
REMARK  157  A    between atoms: _376  and  _377
REMARK  158  A    between atoms: _377  and  _378
REMARK  159  A    between atoms: _382  and  _384
REMARK  160  A    between atoms: _384  and  _385
REMARK  161  A    between atoms: _387  and  _389
REMARK  162  A    between atoms: _389  and  _390
REMARK  163  A    between atoms: _389  and  _392
REMARK  164  A    between atoms: _392  and  _393
REMARK  165  A    between atoms: _396  and  _398
REMARK  166  A    between atoms: _398  and  _399
REMARK  167  A    between atoms: _398  and  _401
REMARK  168  A    between atoms: _401  and  _402
REMARK  169  A    between atoms: _404  and  _406
REMARK  170  A    between atoms: _406  and  _407
REMARK  171  A    between atoms: _409  and  _411
REMARK  172  A    between atoms: _411  and  _412
REMARK  173  A    between atoms: _414  and  _416
REMARK  174  A    between atoms: _416  and  _417
REMARK  175  A    between atoms: _416  and  _419
REMARK  176  A    between atoms: _419  and  _420
REMARK  177  A    between atoms: _423  and  _425
REMARK  178  A    between atoms: _425  and  _426
REMARK  179  A    between atoms: _425  and  _428
REMARK  180  A    between atoms: _428  and  _429
REMARK  181  A    between atoms: _432  and  _434
REMARK  182  A    between atoms: _434  and  _435
REMARK  183  A    between atoms: _434  and  _437
REMARK  184  A    between atoms: _437  and  _438
REMARK  185  A    between atoms: _440  and  _442
REMARK  186  A    between atoms: _442  and  _443
REMARK  187  A    between atoms: _442  and  _445
REMARK  188  A    between atoms: _445  and  _446
REMARK  189  A    between atoms: _456  and  _458
REMARK  190  A    between atoms: _458  and  _459
REMARK  191  A    between atoms: _461  and  _463
REMARK  192  A    between atoms: _463  and  _464
REMARK  193  A    between atoms: _463  and  _466
REMARK  194  A    between atoms: _466  and  _467
REMARK  195  A    between atoms: _467  and  _468
REMARK  196  A    between atoms: _471  and  _473
REMARK  197  A    between atoms: _473  and  _474
REMARK  198  A    between atoms: _476  and  _478
REMARK  199  A    between atoms: _478  and  _479
REMARK  200  A    between atoms: _478  and  _481
REMARK  201  A    between atoms: _481  and  _482
REMARK  202  A    between atoms: _483  and  _485
REMARK  203  A    between atoms: _485  and  _486
REMARK  204  A    between atoms: _489  and  _491
REMARK  205  A    between atoms: _491  and  _492
REMARK  206  A    between atoms: _491  and  _494
REMARK  207  A    between atoms: _494  and  _495
REMARK  208  A    between atoms: _495  and  _496
REMARK  209  A    between atoms: _501  and  _503
REMARK  210  A    between atoms: _503  and  _504
REMARK  211  A    between atoms: _503  and  _506
REMARK  212  A    between atoms: _506  and  _507
REMARK  213  A    between atoms: _507  and  _508
REMARK  214  A    between atoms: _508  and  _509
REMARK  215  A    between atoms: _519  and  _520
REMARK  216  A    between atoms: _525  and  _527
REMARK  217  A    between atoms: _527  and  _528
REMARK  218  A    between atoms: _530  and  _532
REMARK  219  A    between atoms: _532  and  _533
REMARK  220  A    between atoms: _532  and  _535
REMARK  221  A    between atoms: _538  and  _540
REMARK  222  A    between atoms: _540  and  _541
REMARK  223  A    between atoms: _540  and  _543
REMARK  224  A    between atoms: _543  and  _544
REMARK  225  A    between atoms: _549  and  _550
REMARK                            x       y       z     vdW  Elec       q    Type
REMARK                         _______ _______ _______ _____ _____    ______ ____
ROOT
ATOM      1  O   HOH     1      35.224 -17.060  20.256  0.00  0.00    +0.000 OA
ENDROOT
TORSDOF 0
REMARK  Name = ../refined-set-2016/4ty6/4ty6_pocket.pdb
REMARK  225 active torsions:
REMARK  status: ('A' for Active; 'I' for Inactive)
REMARK    1  A    between atoms: _1  and  _5
REMARK    2  A    between atoms: _5  and  _6
REMARK    3  A    between atoms: _5  and  _8
REMARK    4  A    between atoms: _8  and  _9
REMARK    5  A    between atoms: _12  and  _14
REMARK    6  A    between atoms: _14  and  _15
REMARK    7  A    between atoms: _14  and  _17
REMARK    8  A    between atoms: _20  and  _22
REMARK    9  A    between atoms: _22  and  _23
REMARK   10  A    between atoms: _22  and  _25
REMARK   11  A    between atoms: _25  and  _26
REMARK   12  A    between atoms: _29  and  _31
REMARK   13  A    between atoms: _31  and  _32
REMARK   14  A    between atoms: _31  and  _34
REMARK   15  A    between atoms: _34  and  _35
REMARK   16  A    between atoms: _38  and  _40
REMARK   17  A    between atoms: _40  and  _41
REMARK   18  A    between atoms: _40  and  _43
REMARK   19  A    between atoms: _43  and  _44
REMARK   20  A    between atoms: _49  and  _51
REMARK   21  A    between atoms: _51  and  _52
REMARK   22  A    between atoms: _51  and  _54
REMARK   23  A    between atoms: _54  and  _55
REMARK   24  A    between atoms: _58  and  _60
REMARK   25  A    between atoms: _60  and  _61
REMARK   26  A    between atoms: _60  and  _63
REMARK   27  A    between atoms: _63  and  _64
REMARK   28  A    between atoms: _67  and  _69
REMARK   29  A    between atoms: _69  and  _70
REMARK   30  A    between atoms: _69  and  _72
REMARK   31  A    between atoms: _72  and  _73
REMARK   32  A    between atoms: _73  and  _74
REMARK   33  A    between atoms: _79  and  _81
REMARK   34  A    between atoms: _81  and  _82
REMARK   35  A    between atoms: _81  and  _84
REMARK   36  A    between atoms: _84  and  _85
REMARK   37  A    between atoms: _85  and  _86
REMARK   38  A    between atoms: _86  and  _87
REMARK   39  A    between atoms: _96  and  _98
REMARK   40  A    between atoms: _98  and  _99
REMARK   41  A    between atoms: _98  and  _101
REMARK   42  A    between atoms: _101  and  _102
REMARK   43  A    between atoms: _107  and  _109
REMARK   44  A    between atoms: _109  and  _110
REMARK   45  A    between atoms: _109  and  _112
REMARK   46  A    between atoms: _112  and  _113
REMARK   47  A    between atoms: _116  and  _118
REMARK   48  A    between atoms: _118  and  _119
REMARK   49  A    between atoms: _118  and  _121
REMARK   50  A    between atoms: _121  and  _122
REMARK   51  A    between atoms: _122  and  _157
REMARK   52  A    between atoms: _123  and  _125
REMARK   53  A    between atoms: _125  and  _126
REMARK   54  A    between atoms: _128  and  _130
REMARK   55  A    between atoms: _130  and  _131
REMARK   56  A    between atoms: _134  and  _136
REMARK   57  A    between atoms: _136  and  _137
REMARK   58  A    between atoms: _140  and  _142
REMARK   59  A    between atoms: _142  and  _143
REMARK   60  A    between atoms: _142  and  _145
REMARK   61  A    between atoms: _145  and  _146
REMARK   62  A    between atoms: _151  and  _153
REMARK   63  A    between atoms: _153  and  _154
REMARK   64  A    between atoms: _153  and  _156
REMARK   65  A    between atoms: _156  and  _157
REMARK   66  A    between atoms: _158  and  _160
REMARK   67  A    between atoms: _160  and  _161
REMARK   68  A    between atoms: _160  and  _163
REMARK   69  A    between atoms: _163  and  _164
REMARK   70  A    between atoms: _170  and  _172
REMARK   71  A    between atoms: _172  and  _173
REMARK   72  A    between atoms: _172  and  _175
REMARK   73  A    between atoms: _175  and  _176
REMARK   74  A    between atoms: _181  and  _182
REMARK   75  A    between atoms: _184  and  _186
REMARK   76  A    between atoms: _186  and  _187
REMARK   77  A    between atoms: _186  and  _189
REMARK   78  A    between atoms: _192  and  _194
REMARK   79  A    between atoms: _194  and  _195
REMARK   80  A    between atoms: _194  and  _197
REMARK   81  A    between atoms: _197  and  _198
REMARK   82  A    between atoms: _198  and  _199
REMARK   83  A    between atoms: _204  and  _206
REMARK   84  A    between atoms: _206  and  _207
REMARK   85  A    between atoms: _210  and  _212
REMARK   86  A    between atoms: _212  and  _213
REMARK   87  A    between atoms: _212  and  _215
REMARK   88  A    between atoms: _215  and  _216
REMARK   89  A    between atoms: _219  and  _221
REMARK   90  A    between atoms: _221  and  _222
REMARK   91  A    between atoms: _221  and  _224
REMARK   92  A    between atoms: _227  and  _229
REMARK   93  A    between atoms: _229  and  _230
REMARK   94  A    between atoms: _229  and  _232
REMARK   95  A    between atoms: _232  and  _233
REMARK   96  A    between atoms: _243  and  _245
REMARK   97  A    between atoms: _245  and  _246
REMARK   98  A    between atoms: _248  and  _250
REMARK   99  A    between atoms: _250  and  _251
REMARK  100  A    between atoms: _250  and  _253
REMARK  101  A    between atoms: _253  and  _254
REMARK  102  A    between atoms: _259  and  _260
REMARK  103  A    between atoms: _262  and  _264
REMARK  104  A    between atoms: _264  and  _265
REMARK  105  A    between atoms: _264  and  _267
REMARK  106  A    between atoms: _267  and  _268
REMARK  107  A    between atoms: _271  and  _273
REMARK  108  A    between atoms: _273  and  _274
REMARK  109  A    between atoms: _273  and  _276
REMARK  110  A    between atoms: _276  and  _277
REMARK  111  A    between atoms: _280  and  _282
REMARK  112  A    between atoms: _282  and  _283
REMARK  113  A    between atoms: _282  and  _285
REMARK  114  A    between atoms: _285  and  _286
REMARK  115  A    between atoms: _286  and  _287
REMARK  116  A    between atoms: _287  and  _288
REMARK  117  A    between atoms: _288  and  _289
REMARK  118  A    between atoms: _293  and  _295
REMARK  119  A    between atoms: _295  and  _296
REMARK  120  A    between atoms: _295  and  _298
REMARK  121  A    between atoms: _298  and  _299
REMARK  122  A    between atoms: _302  and  _304
REMARK  123  A    between atoms: _304  and  _305
REMARK  124  A    between atoms: _304  and  _307
REMARK  125  A    between atoms: _307  and  _308
REMARK  126  A    between atoms: _308  and  _309
REMARK  127  A    between atoms: _314  and  _316
REMARK  128  A    between atoms: _316  and  _317
REMARK  129  A    between atoms: _316  and  _319
REMARK  130  A    between atoms: _319  and  _320
REMARK  131  A    between atoms: _325  and  _326
REMARK  132  A    between atoms: _328  and  _330
REMARK  133  A    between atoms: _330  and  _331
REMARK  134  A    between atoms: _334  and  _336
REMARK  135  A    between atoms: _336  and  _337
REMARK  136  A    between atoms: _336  and  _339
REMARK  137  A    between atoms: _339  and  _340
REMARK  138  A    between atoms: _340  and  _341
REMARK  139  A    between atoms: _341  and  _342
REMARK  140  A    between atoms: _342  and  _343
REMARK  141  A    between atoms: _347  and  _349
REMARK  142  A    between atoms: _349  and  _350
REMARK  143  A    between atoms: _349  and  _352
REMARK  144  A    between atoms: _352  and  _353
REMARK  145  A    between atoms: _356  and  _358
REMARK  146  A    between atoms: _358  and  _359
REMARK  147  A    between atoms: _362  and  _364
REMARK  148  A    between atoms: _364  and  _365
REMARK  149  A    between atoms: _364  and  _367
REMARK  150  A    between atoms: _367  and  _368
REMARK  151  A    between atoms: _368  and  _482
REMARK  152  A    between atoms: _369  and  _371
REMARK  153  A    between atoms: _371  and  _372
REMARK  154  A    between atoms: _371  and  _374
REMARK  155  A    between atoms: _374  and  _375
REMARK  156  A    between atoms: _375  and  _376
REMARK  157  A    between atoms: _376  and  _377
REMARK  158  A    between atoms: _377  and  _378
REMARK  159  A    between atoms: _382  and  _384
REMARK  160  A    between atoms: _384  and  _385
REMARK  161  A    between atoms: _387  and  _389
REMARK  162  A    between atoms: _389  and  _390
REMARK  163  A    between atoms: _389  and  _392
REMARK  164  A    between atoms: _392  and  _393
REMARK  165  A    between atoms: _396  and  _398
REMARK  166  A    between atoms: _398  and  _399
REMARK  167  A    between atoms: _398  and  _401
REMARK  168  A    between atoms: _401  and  _402
REMARK  169  A    between atoms: _404  and  _406
REMARK  170  A    between atoms: _406  and  _407
REMARK  171  A    between atoms: _409  and  _411
REMARK  172  A    between atoms: _411  and  _412
REMARK  173  A    between atoms: _414  and  _416
REMARK  174  A    between atoms: _416  and  _417
REMARK  175  A    between atoms: _416  and  _419
REMARK  176  A    between atoms: _419  and  _420
REMARK  177  A    between atoms: _423  and  _425
REMARK  178  A    between atoms: _425  and  _426
REMARK  179  A    between atoms: _425  and  _428
REMARK  180  A    between atoms: _428  and  _429
REMARK  181  A    between atoms: _432  and  _434
REMARK  182  A    between atoms: _434  and  _435
REMARK  183  A    between atoms: _434  and  _437
REMARK  184  A    between atoms: _437  and  _438
REMARK  185  A    between atoms: _440  and  _442
REMARK  186  A    between atoms: _442  and  _443
REMARK  187  A    between atoms: _442  and  _445
REMARK  188  A    between atoms: _445  and  _446
REMARK  189  A    between atoms: _456  and  _458
REMARK  190  A    between atoms: _458  and  _459
REMARK  191  A    between atoms: _461  and  _463
REMARK  192  A    between atoms: _463  and  _464
REMARK  193  A    between atoms: _463  and  _466
REMARK  194  A    between atoms: _466  and  _467
REMARK  195  A    between atoms: _467  and  _468
REMARK  196  A    between atoms: _471  and  _473
REMARK  197  A    between atoms: _473  and  _474
REMARK  198  A    between atoms: _476  and  _478
REMARK  199  A    between atoms: _478  and  _479
REMARK  200  A    between atoms: _478  and  _481
REMARK  201  A    between atoms: _481  and  _482
REMARK  202  A    between atoms: _483  and  _485
REMARK  203  A    between atoms: _485  and  _486
REMARK  204  A    between atoms: _489  and  _491
REMARK  205  A    between atoms: _491  and  _492
REMARK  206  A    between atoms: _491  and  _494
REMARK  207  A    between atoms: _494  and  _495
REMARK  208  A    between atoms: _495  and  _496
REMARK  209  A    between atoms: _501  and  _503
REMARK  210  A    between atoms: _503  and  _504
REMARK  211  A    between atoms: _503  and  _506
REMARK  212  A    between atoms: _506  and  _507
REMARK  213  A    between atoms: _507  and  _508
REMARK  214  A    between atoms: _508  and  _509
REMARK  215  A    between atoms: _519  and  _520
REMARK  216  A    between atoms: _525  and  _527
REMARK  217  A    between atoms: _527  and  _528
REMARK  218  A    between atoms: _530  and  _532
REMARK  219  A    between atoms: _532  and  _533
REMARK  220  A    between atoms: _532  and  _535
REMARK  221  A    between atoms: _538  and  _540
REMARK  222  A    between atoms: _540  and  _541
REMARK  223  A    between atoms: _540  and  _543
REMARK  224  A    between atoms: _543  and  _544
REMARK  225  A    between atoms: _549  and  _550
REMARK                            x       y       z     vdW  Elec       q    Type
REMARK                         _______ _______ _______ _____ _____    ______ ____
ROOT
ATOM      1  O   HOH     1      45.825 -23.494  26.941  0.00  0.00    +0.000 OA
ENDROOT
TORSDOF 0
REMARK  Name = ../refined-set-2016/4ty6/4ty6_pocket.pdb
REMARK  225 active torsions:
REMARK  status: ('A' for Active; 'I' for Inactive)
REMARK    1  A    between atoms: _1  and  _5
REMARK    2  A    between atoms: _5  and  _6
REMARK    3  A    between atoms: _5  and  _8
REMARK    4  A    between atoms: _8  and  _9
REMARK    5  A    between atoms: _12  and  _14
REMARK    6  A    between atoms: _14  and  _15
REMARK    7  A    between atoms: _14  and  _17
REMARK    8  A    between atoms: _20  and  _22
REMARK    9  A    between atoms: _22  and  _23
REMARK   10  A    between atoms: _22  and  _25
REMARK   11  A    between atoms: _25  and  _26
REMARK   12  A    between atoms: _29  and  _31
REMARK   13  A    between atoms: _31  and  _32
REMARK   14  A    between atoms: _31  and  _34
REMARK   15  A    between atoms: _34  and  _35
REMARK   16  A    between atoms: _38  and  _40
REMARK   17  A    between atoms: _40  and  _41
REMARK   18  A    between atoms: _40  and  _43
REMARK   19  A    between atoms: _43  and  _44
REMARK   20  A    between atoms: _49  and  _51
REMARK   21  A    between atoms: _51  and  _52
REMARK   22  A    between atoms: _51  and  _54
REMARK   23  A    between atoms: _54  and  _55
REMARK   24  A    between atoms: _58  and  _60
REMARK   25  A    between atoms: _60  and  _61
REMARK   26  A    between atoms: _60  and  _63
REMARK   27  A    between atoms: _63  and  _64
REMARK   28  A    between atoms: _67  and  _69
REMARK   29  A    between atoms: _69  and  _70
REMARK   30  A    between atoms: _69  and  _72
REMARK   31  A    between atoms: _72  and  _73
REMARK   32  A    between atoms: _73  and  _74
REMARK   33  A    between atoms: _79  and  _81
REMARK   34  A    between atoms: _81  and  _82
REMARK   35  A    between atoms: _81  and  _84
REMARK   36  A    between atoms: _84  and  _85
REMARK   37  A    between atoms: _85  and  _86
REMARK   38  A    between atoms: _86  and  _87
REMARK   39  A    between atoms: _96  and  _98
REMARK   40  A    between atoms: _98  and  _99
REMARK   41  A    between atoms: _98  and  _101
REMARK   42  A    between atoms: _101  and  _102
REMARK   43  A    between atoms: _107  and  _109
REMARK   44  A    between atoms: _109  and  _110
REMARK   45  A    between atoms: _109  and  _112
REMARK   46  A    between atoms: _112  and  _113
REMARK   47  A    between atoms: _116  and  _118
REMARK   48  A    between atoms: _118  and  _119
REMARK   49  A    between atoms: _118  and  _121
REMARK   50  A    between atoms: _121  and  _122
REMARK   51  A    between atoms: _122  and  _157
REMARK   52  A    between atoms: _123  and  _125
REMARK   53  A    between atoms: _125  and  _126
REMARK   54  A    between atoms: _128  and  _130
REMARK   55  A    between atoms: _130  and  _131
REMARK   56  A    between atoms: _134  and  _136
REMARK   57  A    between atoms: _136  and  _137
REMARK   58  A    between atoms: _140  and  _142
REMARK   59  A    between atoms: _142  and  _143
REMARK   60  A    between atoms: _142  and  _145
REMARK   61  A    between atoms: _145  and  _146
REMARK   62  A    between atoms: _151  and  _153
REMARK   63  A    between atoms: _153  and  _154
REMARK   64  A    between atoms: _153  and  _156
REMARK   65  A    between atoms: _156  and  _157
REMARK   66  A    between atoms: _158  and  _160
REMARK   67  A    between atoms: _160  and  _161
REMARK   68  A    between atoms: _160  and  _163
REMARK   69  A    between atoms: _163  and  _164
REMARK   70  A    between atoms: _170  and  _172
REMARK   71  A    between atoms: _172  and  _173
REMARK   72  A    between atoms: _172  and  _175
REMARK   73  A    between atoms: _175  and  _176
REMARK   74  A    between atoms: _181  and  _182
REMARK   75  A    between atoms: _184  and  _186
REMARK   76  A    between atoms: _186  and  _187
REMARK   77  A    between atoms: _186  and  _189
REMARK   78  A    between atoms: _192  and  _194
REMARK   79  A    between atoms: _194  and  _195
REMARK   80  A    between atoms: _194  and  _197
REMARK   81  A    between atoms: _197  and  _198
REMARK   82  A    between atoms: _198  and  _199
REMARK   83  A    between atoms: _204  and  _206
REMARK   84  A    between atoms: _206  and  _207
REMARK   85  A    between atoms: _210  and  _212
REMARK   86  A    between atoms: _212  and  _213
REMARK   87  A    between atoms: _212  and  _215
REMARK   88  A    between atoms: _215  and  _216
REMARK   89  A    between atoms: _219  and  _221
REMARK   90  A    between atoms: _221  and  _222
REMARK   91  A    between atoms: _221  and  _224
REMARK   92  A    between atoms: _227  and  _229
REMARK   93  A    between atoms: _229  and  _230
REMARK   94  A    between atoms: _229  and  _232
REMARK   95  A    between atoms: _232  and  _233
REMARK   96  A    between atoms: _243  and  _245
REMARK   97  A    between atoms: _245  and  _246
REMARK   98  A    between atoms: _248  and  _250
REMARK   99  A    between atoms: _250  and  _251
REMARK  100  A    between atoms: _250  and  _253
REMARK  101  A    between atoms: _253  and  _254
REMARK  102  A    between atoms: _259  and  _260
REMARK  103  A    between atoms: _262  and  _264
REMARK  104  A    between atoms: _264  and  _265
REMARK  105  A    between atoms: _264  and  _267
REMARK  106  A    between atoms: _267  and  _268
REMARK  107  A    between atoms: _271  and  _273
REMARK  108  A    between atoms: _273  and  _274
REMARK  109  A    between atoms: _273  and  _276
REMARK  110  A    between atoms: _276  and  _277
REMARK  111  A    between atoms: _280  and  _282
REMARK  112  A    between atoms: _282  and  _283
REMARK  113  A    between atoms: _282  and  _285
REMARK  114  A    between atoms: _285  and  _286
REMARK  115  A    between atoms: _286  and  _287
REMARK  116  A    between atoms: _287  and  _288
REMARK  117  A    between atoms: _288  and  _289
REMARK  118  A    between atoms: _293  and  _295
REMARK  119  A    between atoms: _295  and  _296
REMARK  120  A    between atoms: _295  and  _298
REMARK  121  A    between atoms: _298  and  _299
REMARK  122  A    between atoms: _302  and  _304
REMARK  123  A    between atoms: _304  and  _305
REMARK  124  A    between atoms: _304  and  _307
REMARK  125  A    between atoms: _307  and  _308
REMARK  126  A    between atoms: _308  and  _309
REMARK  127  A    between atoms: _314  and  _316
REMARK  128  A    between atoms: _316  and  _317
REMARK  129  A    between atoms: _316  and  _319
REMARK  130  A    between atoms: _319  and  _320
REMARK  131  A    between atoms: _325  and  _326
REMARK  132  A    between atoms: _328  and  _330
REMARK  133  A    between atoms: _330  and  _331
REMARK  134  A    between atoms: _334  and  _336
REMARK  135  A    between atoms: _336  and  _337
REMARK  136  A    between atoms: _336  and  _339
REMARK  137  A    between atoms: _339  and  _340
REMARK  138  A    between atoms: _340  and  _341
REMARK  139  A    between atoms: _341  and  _342
REMARK  140  A    between atoms: _342  and  _343
REMARK  141  A    between atoms: _347  and  _349
REMARK  142  A    between atoms: _349  and  _350
REMARK  143  A    between atoms: _349  and  _352
REMARK  144  A    between atoms: _352  and  _353
REMARK  145  A    between atoms: _356  and  _358
REMARK  146  A    between atoms: _358  and  _359
REMARK  147  A    between atoms: _362  and  _364
REMARK  148  A    between atoms: _364  and  _365
REMARK  149  A    between atoms: _364  and  _367
REMARK  150  A    between atoms: _367  and  _368
REMARK  151  A    between atoms: _368  and  _482
REMARK  152  A    between atoms: _369  and  _371
REMARK  153  A    between atoms: _371  and  _372
REMARK  154  A    between atoms: _371  and  _374
REMARK  155  A    between atoms: _374  and  _375
REMARK  156  A    between atoms: _375  and  _376
REMARK  157  A    between atoms: _376  and  _377
REMARK  158  A    between atoms: _377  and  _378
REMARK  159  A    between atoms: _382  and  _384
REMARK  160  A    between atoms: _384  and  _385
REMARK  161  A    between atoms: _387  and  _389
REMARK  162  A    between atoms: _389  and  _390
REMARK  163  A    between atoms: _389  and  _392
REMARK  164  A    between atoms: _392  and  _393
REMARK  165  A    between atoms: _396  and  _398
REMARK  166  A    between atoms: _398  and  _399
REMARK  167  A    between atoms: _398  and  _401
REMARK  168  A    between atoms: _401  and  _402
REMARK  169  A    between atoms: _404  and  _406
REMARK  170  A    between atoms: _406  and  _407
REMARK  171  A    between atoms: _409  and  _411
REMARK  172  A    between atoms: _411  and  _412
REMARK  173  A    between atoms: _414  and  _416
REMARK  174  A    between atoms: _416  and  _417
REMARK  175  A    between atoms: _416  and  _419
REMARK  176  A    between atoms: _419  and  _420
REMARK  177  A    between atoms: _423  and  _425
REMARK  178  A    between atoms: _425  and  _426
REMARK  179  A    between atoms: _425  and  _428
REMARK  180  A    between atoms: _428  and  _429
REMARK  181  A    between atoms: _432  and  _434
REMARK  182  A    between atoms: _434  and  _435
REMARK  183  A    between atoms: _434  and  _437
REMARK  184  A    between atoms: _437  and  _438
REMARK  185  A    between atoms: _440  and  _442
REMARK  186  A    between atoms: _442  and  _443
REMARK  187  A    between atoms: _442  and  _445
REMARK  188  A    between atoms: _445  and  _446
REMARK  189  A    between atoms: _456  and  _458
REMARK  190  A    between atoms: _458  and  _459
REMARK  191  A    between atoms: _461  and  _463
REMARK  192  A    between atoms: _463  and  _464
REMARK  193  A    between atoms: _463  and  _466
REMARK  194  A    between atoms: _466  and  _467
REMARK  195  A    between atoms: _467  and  _468
REMARK  196  A    between atoms: _471  and  _473
REMARK  197  A    between atoms: _473  and  _474
REMARK  198  A    between atoms: _476  and  _478
REMARK  199  A    between atoms: _478  and  _479
REMARK  200  A    between atoms: _478  and  _481
REMARK  201  A    between atoms: _481  and  _482
REMARK  202  A    between atoms: _483  and  _485
REMARK  203  A    between atoms: _485  and  _486
REMARK  204  A    between atoms: _489  and  _491
REMARK  205  A    between atoms: _491  and  _492
REMARK  206  A    between atoms: _491  and  _494
REMARK  207  A    between atoms: _494  and  _495
REMARK  208  A    between atoms: _495  and  _496
REMARK  209  A    between atoms: _501  and  _503
REMARK  210  A    between atoms: _503  and  _504
REMARK  211  A    between atoms: _503  and  _506
REMARK  212  A    between atoms: _506  and  _507
REMARK  213  A    between atoms: _507  and  _508
REMARK  214  A    between atoms: _508  and  _509
REMARK  215  A    between atoms: _519  and  _520
REMARK  216  A    between atoms: _525  and  _527
REMARK  217  A    between atoms: _527  and  _528
REMARK  218  A    between atoms: _530  and  _532
REMARK  219  A    between atoms: _532  and  _533
REMARK  220  A    between atoms: _532  and  _535
REMARK  221  A    between atoms: _538  and  _540
REMARK  222  A    between atoms: _540  and  _541
REMARK  223  A    between atoms: _540  and  _543
REMARK  224  A    between atoms: _543  and  _544
REMARK  225  A    between atoms: _549  and  _550
REMARK                            x       y       z     vdW  Elec       q    Type
REMARK                         _______ _______ _______ _____ _____    ______ ____
ROOT
ATOM      1  O   HOH     1      47.859 -29.320  31.338  0.00  0.00    +0.000 OA
ENDROOT
TORSDOF 0
REMARK  Name = ../refined-set-2016/4ty6/4ty6_pocket.pdb
REMARK  225 active torsions:
REMARK  status: ('A' for Active; 'I' for Inactive)
REMARK    1  A    between atoms: _1  and  _5
REMARK    2  A    between atoms: _5  and  _6
REMARK    3  A    between atoms: _5  and  _8
REMARK    4  A    between atoms: _8  and  _9
REMARK    5  A    between atoms: _12  and  _14
REMARK    6  A    between atoms: _14  and  _15
REMARK    7  A    between atoms: _14  and  _17
REMARK    8  A    between atoms: _20  and  _22
REMARK    9  A    between atoms: _22  and  _23
REMARK   10  A    between atoms: _22  and  _25
REMARK   11  A    between atoms: _25  and  _26
REMARK   12  A    between atoms: _29  and  _31
REMARK   13  A    between atoms: _31  and  _32
REMARK   14  A    between atoms: _31  and  _34
REMARK   15  A    between atoms: _34  and  _35
REMARK   16  A    between atoms: _38  and  _40
REMARK   17  A    between atoms: _40  and  _41
REMARK   18  A    between atoms: _40  and  _43
REMARK   19  A    between atoms: _43  and  _44
REMARK   20  A    between atoms: _49  and  _51
REMARK   21  A    between atoms: _51  and  _52
REMARK   22  A    between atoms: _51  and  _54
REMARK   23  A    between atoms: _54  and  _55
REMARK   24  A    between atoms: _58  and  _60
REMARK   25  A    between atoms: _60  and  _61
REMARK   26  A    between atoms: _60  and  _63
REMARK   27  A    between atoms: _63  and  _64
REMARK   28  A    between atoms: _67  and  _69
REMARK   29  A    between atoms: _69  and  _70
REMARK   30  A    between atoms: _69  and  _72
REMARK   31  A    between atoms: _72  and  _73
REMARK   32  A    between atoms: _73  and  _74
REMARK   33  A    between atoms: _79  and  _81
REMARK   34  A    between atoms: _81  and  _82
REMARK   35  A    between atoms: _81  and  _84
REMARK   36  A    between atoms: _84  and  _85
REMARK   37  A    between atoms: _85  and  _86
REMARK   38  A    between atoms: _86  and  _87
REMARK   39  A    between atoms: _96  and  _98
REMARK   40  A    between atoms: _98  and  _99
REMARK   41  A    between atoms: _98  and  _101
REMARK   42  A    between atoms: _101  and  _102
REMARK   43  A    between atoms: _107  and  _109
REMARK   44  A    between atoms: _109  and  _110
REMARK   45  A    between atoms: _109  and  _112
REMARK   46  A    between atoms: _112  and  _113
REMARK   47  A    between atoms: _116  and  _118
REMARK   48  A    between atoms: _118  and  _119
REMARK   49  A    between atoms: _118  and  _121
REMARK   50  A    between atoms: _121  and  _122
REMARK   51  A    between atoms: _122  and  _157
REMARK   52  A    between atoms: _123  and  _125
REMARK   53  A    between atoms: _125  and  _126
REMARK   54  A    between atoms: _128  and  _130
REMARK   55  A    between atoms: _130  and  _131
REMARK   56  A    between atoms: _134  and  _136
REMARK   57  A    between atoms: _136  and  _137
REMARK   58  A    between atoms: _140  and  _142
REMARK   59  A    between atoms: _142  and  _143
REMARK   60  A    between atoms: _142  and  _145
REMARK   61  A    between atoms: _145  and  _146
REMARK   62  A    between atoms: _151  and  _153
REMARK   63  A    between atoms: _153  and  _154
REMARK   64  A    between atoms: _153  and  _156
REMARK   65  A    between atoms: _156  and  _157
REMARK   66  A    between atoms: _158  and  _160
REMARK   67  A    between atoms: _160  and  _161
REMARK   68  A    between atoms: _160  and  _163
REMARK   69  A    between atoms: _163  and  _164
REMARK   70  A    between atoms: _170  and  _172
REMARK   71  A    between atoms: _172  and  _173
REMARK   72  A    between atoms: _172  and  _175
REMARK   73  A    between atoms: _175  and  _176
REMARK   74  A    between atoms: _181  and  _182
REMARK   75  A    between atoms: _184  and  _186
REMARK   76  A    between atoms: _186  and  _187
REMARK   77  A    between atoms: _186  and  _189
REMARK   78  A    between atoms: _192  and  _194
REMARK   79  A    between atoms: _194  and  _195
REMARK   80  A    between atoms: _194  and  _197
REMARK   81  A    between atoms: _197  and  _198
REMARK   82  A    between atoms: _198  and  _199
REMARK   83  A    between atoms: _204  and  _206
REMARK   84  A    between atoms: _206  and  _207
REMARK   85  A    between atoms: _210  and  _212
REMARK   86  A    between atoms: _212  and  _213
REMARK   87  A    between atoms: _212  and  _215
REMARK   88  A    between atoms: _215  and  _216
REMARK   89  A    between atoms: _219  and  _221
REMARK   90  A    between atoms: _221  and  _222
REMARK   91  A    between atoms: _221  and  _224
REMARK   92  A    between atoms: _227  and  _229
REMARK   93  A    between atoms: _229  and  _230
REMARK   94  A    between atoms: _229  and  _232
REMARK   95  A    between atoms: _232  and  _233
REMARK   96  A    between atoms: _243  and  _245
REMARK   97  A    between atoms: _245  and  _246
REMARK   98  A    between atoms: _248  and  _250
REMARK   99  A    between atoms: _250  and  _251
REMARK  100  A    between atoms: _250  and  _253
REMARK  101  A    between atoms: _253  and  _254
REMARK  102  A    between atoms: _259  and  _260
REMARK  103  A    between atoms: _262  and  _264
REMARK  104  A    between atoms: _264  and  _265
REMARK  105  A    between atoms: _264  and  _267
REMARK  106  A    between atoms: _267  and  _268
REMARK  107  A    between atoms: _271  and  _273
REMARK  108  A    between atoms: _273  and  _274
REMARK  109  A    between atoms: _273  and  _276
REMARK  110  A    between atoms: _276  and  _277
REMARK  111  A    between atoms: _280  and  _282
REMARK  112  A    between atoms: _282  and  _283
REMARK  113  A    between atoms: _282  and  _285
REMARK  114  A    between atoms: _285  and  _286
REMARK  115  A    between atoms: _286  and  _287
REMARK  116  A    between atoms: _287  and  _288
REMARK  117  A    between atoms: _288  and  _289
REMARK  118  A    between atoms: _293  and  _295
REMARK  119  A    between atoms: _295  and  _296
REMARK  120  A    between atoms: _295  and  _298
REMARK  121  A    between atoms: _298  and  _299
REMARK  122  A    between atoms: _302  and  _304
REMARK  123  A    between atoms: _304  and  _305
REMARK  124  A    between atoms: _304  and  _307
REMARK  125  A    between atoms: _307  and  _308
REMARK  126  A    between atoms: _308  and  _309
REMARK  127  A    between atoms: _314  and  _316
REMARK  128  A    between atoms: _316  and  _317
REMARK  129  A    between atoms: _316  and  _319
REMARK  130  A    between atoms: _319  and  _320
REMARK  131  A    between atoms: _325  and  _326
REMARK  132  A    between atoms: _328  and  _330
REMARK  133  A    between atoms: _330  and  _331
REMARK  134  A    between atoms: _334  and  _336
REMARK  135  A    between atoms: _336  and  _337
REMARK  136  A    between atoms: _336  and  _339
REMARK  137  A    between atoms: _339  and  _340
REMARK  138  A    between atoms: _340  and  _341
REMARK  139  A    between atoms: _341  and  _342
REMARK  140  A    between atoms: _342  and  _343
REMARK  141  A    between atoms: _347  and  _349
REMARK  142  A    between atoms: _349  and  _350
REMARK  143  A    between atoms: _349  and  _352
REMARK  144  A    between atoms: _352  and  _353
REMARK  145  A    between atoms: _356  and  _358
REMARK  146  A    between atoms: _358  and  _359
REMARK  147  A    between atoms: _362  and  _364
REMARK  148  A    between atoms: _364  and  _365
REMARK  149  A    between atoms: _364  and  _367
REMARK  150  A    between atoms: _367  and  _368
REMARK  151  A    between atoms: _368  and  _482
REMARK  152  A    between atoms: _369  and  _371
REMARK  153  A    between atoms: _371  and  _372
REMARK  154  A    between atoms: _371  and  _374
REMARK  155  A    between atoms: _374  and  _375
REMARK  156  A    between atoms: _375  and  _376
REMARK  157  A    between atoms: _376  and  _377
REMARK  158  A    between atoms: _377  and  _378
REMARK  159  A    between atoms: _382  and  _384
REMARK  160  A    between atoms: _384  and  _385
REMARK  161  A    between atoms: _387  and  _389
REMARK  162  A    between atoms: _389  and  _390
REMARK  163  A    between atoms: _389  and  _392
REMARK  164  A    between atoms: _392  and  _393
REMARK  165  A    between atoms: _396  and  _398
REMARK  166  A    between atoms: _398  and  _399
REMARK  167  A    between atoms: _398  and  _401
REMARK  168  A    between atoms: _401  and  _402
REMARK  169  A    between atoms: _404  and  _406
REMARK  170  A    between atoms: _406  and  _407
REMARK  171  A    between atoms: _409  and  _411
REMARK  172  A    between atoms: _411  and  _412
REMARK  173  A    between atoms: _414  and  _416
REMARK  174  A    between atoms: _416  and  _417
REMARK  175  A    between atoms: _416  and  _419
REMARK  176  A    between atoms: _419  and  _420
REMARK  177  A    between atoms: _423  and  _425
REMARK  178  A    between atoms: _425  and  _426
REMARK  179  A    between atoms: _425  and  _428
REMARK  180  A    between atoms: _428  and  _429
REMARK  181  A    between atoms: _432  and  _434
REMARK  182  A    between atoms: _434  and  _435
REMARK  183  A    between atoms: _434  and  _437
REMARK  184  A    between atoms: _437  and  _438
REMARK  185  A    between atoms: _440  and  _442
REMARK  186  A    between atoms: _442  and  _443
REMARK  187  A    between atoms: _442  and  _445
REMARK  188  A    between atoms: _445  and  _446
REMARK  189  A    between atoms: _456  and  _458
REMARK  190  A    between atoms: _458  and  _459
REMARK  191  A    between atoms: _461  and  _463
REMARK  192  A    between atoms: _463  and  _464
REMARK  193  A    between atoms: _463  and  _466
REMARK  194  A    between atoms: _466  and  _467
REMARK  195  A    between atoms: _467  and  _468
REMARK  196  A    between atoms: _471  and  _473
REMARK  197  A    between atoms: _473  and  _474
REMARK  198  A    between atoms: _476  and  _478
REMARK  199  A    between atoms: _478  and  _479
REMARK  200  A    between atoms: _478  and  _481
REMARK  201  A    between atoms: _481  and  _482
REMARK  202  A    between atoms: _483  and  _485
REMARK  203  A    between atoms: _485  and  _486
REMARK  204  A    between atoms: _489  and  _491
REMARK  205  A    between atoms: _491  and  _492
REMARK  206  A    between atoms: _491  and  _494
REMARK  207  A    between atoms: _494  and  _495
REMARK  208  A    between atoms: _495  and  _496
REMARK  209  A    between atoms: _501  and  _503
REMARK  210  A    between atoms: _503  and  _504
REMARK  211  A    between atoms: _503  and  _506
REMARK  212  A    between atoms: _506  and  _507
REMARK  213  A    between atoms: _507  and  _508
REMARK  214  A    between atoms: _508  and  _509
REMARK  215  A    between atoms: _519  and  _520
REMARK  216  A    between atoms: _525  and  _527
REMARK  217  A    between atoms: _527  and  _528
REMARK  218  A    between atoms: _530  and  _532
REMARK  219  A    between atoms: _532  and  _533
REMARK  220  A    between atoms: _532  and  _535
REMARK  221  A    between atoms: _538  and  _540
REMARK  222  A    between atoms: _540  and  _541
REMARK  223  A    between atoms: _540  and  _543
REMARK  224  A    between atoms: _543  and  _544
REMARK  225  A    between atoms: _549  and  _550
REMARK                            x       y       z     vdW  Elec       q    Type
REMARK                         _______ _______ _______ _____ _____    ______ ____
ROOT
ATOM      1  O   HOH     1      51.558 -23.297  31.781  0.00  0.00    +0.000 OA
ENDROOT
TORSDOF 0
REMARK  Name = ../refined-set-2016/4ty6/4ty6_pocket.pdb
REMARK  225 active torsions:
REMARK  status: ('A' for Active; 'I' for Inactive)
REMARK    1  A    between atoms: _1  and  _5
REMARK    2  A    between atoms: _5  and  _6
REMARK    3  A    between atoms: _5  and  _8
REMARK    4  A    between atoms: _8  and  _9
REMARK    5  A    between atoms: _12  and  _14
REMARK    6  A    between atoms: _14  and  _15
REMARK    7  A    between atoms: _14  and  _17
REMARK    8  A    between atoms: _20  and  _22
REMARK    9  A    between atoms: _22  and  _23
REMARK   10  A    between atoms: _22  and  _25
REMARK   11  A    between atoms: _25  and  _26
REMARK   12  A    between atoms: _29  and  _31
REMARK   13  A    between atoms: _31  and  _32
REMARK   14  A    between atoms: _31  and  _34
REMARK   15  A    between atoms: _34  and  _35
REMARK   16  A    between atoms: _38  and  _40
REMARK   17  A    between atoms: _40  and  _41
REMARK   18  A    between atoms: _40  and  _43
REMARK   19  A    between atoms: _43  and  _44
REMARK   20  A    between atoms: _49  and  _51
REMARK   21  A    between atoms: _51  and  _52
REMARK   22  A    between atoms: _51  and  _54
REMARK   23  A    between atoms: _54  and  _55
REMARK   24  A    between atoms: _58  and  _60
REMARK   25  A    between atoms: _60  and  _61
REMARK   26  A    between atoms: _60  and  _63
REMARK   27  A    between atoms: _63  and  _64
REMARK   28  A    between atoms: _67  and  _69
REMARK   29  A    between atoms: _69  and  _70
REMARK   30  A    between atoms: _69  and  _72
REMARK   31  A    between atoms: _72  and  _73
REMARK   32  A    between atoms: _73  and  _74
REMARK   33  A    between atoms: _79  and  _81
REMARK   34  A    between atoms: _81  and  _82
REMARK   35  A    between atoms: _81  and  _84
REMARK   36  A    between atoms: _84  and  _85
REMARK   37  A    between atoms: _85  and  _86
REMARK   38  A    between atoms: _86  and  _87
REMARK   39  A    between atoms: _96  and  _98
REMARK   40  A    between atoms: _98  and  _99
REMARK   41  A    between atoms: _98  and  _101
REMARK   42  A    between atoms: _101  and  _102
REMARK   43  A    between atoms: _107  and  _109
REMARK   44  A    between atoms: _109  and  _110
REMARK   45  A    between atoms: _109  and  _112
REMARK   46  A    between atoms: _112  and  _113
REMARK   47  A    between atoms: _116  and  _118
REMARK   48  A    between atoms: _118  and  _119
REMARK   49  A    between atoms: _118  and  _121
REMARK   50  A    between atoms: _121  and  _122
REMARK   51  A    between atoms: _122  and  _157
REMARK   52  A    between atoms: _123  and  _125
REMARK   53  A    between atoms: _125  and  _126
REMARK   54  A    between atoms: _128  and  _130
REMARK   55  A    between atoms: _130  and  _131
REMARK   56  A    between atoms: _134  and  _136
REMARK   57  A    between atoms: _136  and  _137
REMARK   58  A    between atoms: _140  and  _142
REMARK   59  A    between atoms: _142  and  _143
REMARK   60  A    between atoms: _142  and  _145
REMARK   61  A    between atoms: _145  and  _146
REMARK   62  A    between atoms: _151  and  _153
REMARK   63  A    between atoms: _153  and  _154
REMARK   64  A    between atoms: _153  and  _156
REMARK   65  A    between atoms: _156  and  _157
REMARK   66  A    between atoms: _158  and  _160
REMARK   67  A    between atoms: _160  and  _161
REMARK   68  A    between atoms: _160  and  _163
REMARK   69  A    between atoms: _163  and  _164
REMARK   70  A    between atoms: _170  and  _172
REMARK   71  A    between atoms: _172  and  _173
REMARK   72  A    between atoms: _172  and  _175
REMARK   73  A    between atoms: _175  and  _176
REMARK   74  A    between atoms: _181  and  _182
REMARK   75  A    between atoms: _184  and  _186
REMARK   76  A    between atoms: _186  and  _187
REMARK   77  A    between atoms: _186  and  _189
REMARK   78  A    between atoms: _192  and  _194
REMARK   79  A    between atoms: _194  and  _195
REMARK   80  A    between atoms: _194  and  _197
REMARK   81  A    between atoms: _197  and  _198
REMARK   82  A    between atoms: _198  and  _199
REMARK   83  A    between atoms: _204  and  _206
REMARK   84  A    between atoms: _206  and  _207
REMARK   85  A    between atoms: _210  and  _212
REMARK   86  A    between atoms: _212  and  _213
REMARK   87  A    between atoms: _212  and  _215
REMARK   88  A    between atoms: _215  and  _216
REMARK   89  A    between atoms: _219  and  _221
REMARK   90  A    between atoms: _221  and  _222
REMARK   91  A    between atoms: _221  and  _224
REMARK   92  A    between atoms: _227  and  _229
REMARK   93  A    between atoms: _229  and  _230
REMARK   94  A    between atoms: _229  and  _232
REMARK   95  A    between atoms: _232  and  _233
REMARK   96  A    between atoms: _243  and  _245
REMARK   97  A    between atoms: _245  and  _246
REMARK   98  A    between atoms: _248  and  _250
REMARK   99  A    between atoms: _250  and  _251
REMARK  100  A    between atoms: _250  and  _253
REMARK  101  A    between atoms: _253  and  _254
REMARK  102  A    between atoms: _259  and  _260
REMARK  103  A    between atoms: _262  and  _264
REMARK  104  A    between atoms: _264  and  _265
REMARK  105  A    between atoms: _264  and  _267
REMARK  106  A    between atoms: _267  and  _268
REMARK  107  A    between atoms: _271  and  _273
REMARK  108  A    between atoms: _273  and  _274
REMARK  109  A    between atoms: _273  and  _276
REMARK  110  A    between atoms: _276  and  _277
REMARK  111  A    between atoms: _280  and  _282
REMARK  112  A    between atoms: _282  and  _283
REMARK  113  A    between atoms: _282  and  _285
REMARK  114  A    between atoms: _285  and  _286
REMARK  115  A    between atoms: _286  and  _287
REMARK  116  A    between atoms: _287  and  _288
REMARK  117  A    between atoms: _288  and  _289
REMARK  118  A    between atoms: _293  and  _295
REMARK  119  A    between atoms: _295  and  _296
REMARK  120  A    between atoms: _295  and  _298
REMARK  121  A    between atoms: _298  and  _299
REMARK  122  A    between atoms: _302  and  _304
REMARK  123  A    between atoms: _304  and  _305
REMARK  124  A    between atoms: _304  and  _307
REMARK  125  A    between atoms: _307  and  _308
REMARK  126  A    between atoms: _308  and  _309
REMARK  127  A    between atoms: _314  and  _316
REMARK  128  A    between atoms: _316  and  _317
REMARK  129  A    between atoms: _316  and  _319
REMARK  130  A    between atoms: _319  and  _320
REMARK  131  A    between atoms: _325  and  _326
REMARK  132  A    between atoms: _328  and  _330
REMARK  133  A    between atoms: _330  and  _331
REMARK  134  A    between atoms: _334  and  _336
REMARK  135  A    between atoms: _336  and  _337
REMARK  136  A    between atoms: _336  and  _339
REMARK  137  A    between atoms: _339  and  _340
REMARK  138  A    between atoms: _340  and  _341
REMARK  139  A    between atoms: _341  and  _342
REMARK  140  A    between atoms: _342  and  _343
REMARK  141  A    between atoms: _347  and  _349
REMARK  142  A    between atoms: _349  and  _350
REMARK  143  A    between atoms: _349  and  _352
REMARK  144  A    between atoms: _352  and  _353
REMARK  145  A    between atoms: _356  and  _358
REMARK  146  A    between atoms: _358  and  _359
REMARK  147  A    between atoms: _362  and  _364
REMARK  148  A    between atoms: _364  and  _365
REMARK  149  A    between atoms: _364  and  _367
REMARK  150  A    between atoms: _367  and  _368
REMARK  151  A    between atoms: _368  and  _482
REMARK  152  A    between atoms: _369  and  _371
REMARK  153  A    between atoms: _371  and  _372
REMARK  154  A    between atoms: _371  and  _374
REMARK  155  A    between atoms: _374  and  _375
REMARK  156  A    between atoms: _375  and  _376
REMARK  157  A    between atoms: _376  and  _377
REMARK  158  A    between atoms: _377  and  _378
REMARK  159  A    between atoms: _382  and  _384
REMARK  160  A    between atoms: _384  and  _385
REMARK  161  A    between atoms: _387  and  _389
REMARK  162  A    between atoms: _389  and  _390
REMARK  163  A    between atoms: _389  and  _392
REMARK  164  A    between atoms: _392  and  _393
REMARK  165  A    between atoms: _396  and  _398
REMARK  166  A    between atoms: _398  and  _399
REMARK  167  A    between atoms: _398  and  _401
REMARK  168  A    between atoms: _401  and  _402
REMARK  169  A    between atoms: _404  and  _406
REMARK  170  A    between atoms: _406  and  _407
REMARK  171  A    between atoms: _409  and  _411
REMARK  172  A    between atoms: _411  and  _412
REMARK  173  A    between atoms: _414  and  _416
REMARK  174  A    between atoms: _416  and  _417
REMARK  175  A    between atoms: _416  and  _419
REMARK  176  A    between atoms: _419  and  _420
REMARK  177  A    between atoms: _423  and  _425
REMARK  178  A    between atoms: _425  and  _426
REMARK  179  A    between atoms: _425  and  _428
REMARK  180  A    between atoms: _428  and  _429
REMARK  181  A    between atoms: _432  and  _434
REMARK  182  A    between atoms: _434  and  _435
REMARK  183  A    between atoms: _434  and  _437
REMARK  184  A    between atoms: _437  and  _438
REMARK  185  A    between atoms: _440  and  _442
REMARK  186  A    between atoms: _442  and  _443
REMARK  187  A    between atoms: _442  and  _445
REMARK  188  A    between atoms: _445  and  _446
REMARK  189  A    between atoms: _456  and  _458
REMARK  190  A    between atoms: _458  and  _459
REMARK  191  A    between atoms: _461  and  _463
REMARK  192  A    between atoms: _463  and  _464
REMARK  193  A    between atoms: _463  and  _466
REMARK  194  A    between atoms: _466  and  _467
REMARK  195  A    between atoms: _467  and  _468
REMARK  196  A    between atoms: _471  and  _473
REMARK  197  A    between atoms: _473  and  _474
REMARK  198  A    between atoms: _476  and  _478
REMARK  199  A    between atoms: _478  and  _479
REMARK  200  A    between atoms: _478  and  _481
REMARK  201  A    between atoms: _481  and  _482
REMARK  202  A    between atoms: _483  and  _485
REMARK  203  A    between atoms: _485  and  _486
REMARK  204  A    between atoms: _489  and  _491
REMARK  205  A    between atoms: _491  and  _492
REMARK  206  A    between atoms: _491  and  _494
REMARK  207  A    between atoms: _494  and  _495
REMARK  208  A    between atoms: _495  and  _496
REMARK  209  A    between atoms: _501  and  _503
REMARK  210  A    between atoms: _503  and  _504
REMARK  211  A    between atoms: _503  and  _506
REMARK  212  A    between atoms: _506  and  _507
REMARK  213  A    between atoms: _507  and  _508
REMARK  214  A    between atoms: _508  and  _509
REMARK  215  A    between atoms: _519  and  _520
REMARK  216  A    between atoms: _525  and  _527
REMARK  217  A    between atoms: _527  and  _528
REMARK  218  A    between atoms: _530  and  _532
REMARK  219  A    between atoms: _532  and  _533
REMARK  220  A    between atoms: _532  and  _535
REMARK  221  A    between atoms: _538  and  _540
REMARK  222  A    between atoms: _540  and  _541
REMARK  223  A    between atoms: _540  and  _543
REMARK  224  A    between atoms: _543  and  _544
REMARK  225  A    between atoms: _549  and  _550
REMARK                            x       y       z     vdW  Elec       q    Type
REMARK                         _______ _______ _______ _____ _____    ______ ____
ROOT
ATOM      1  O   HOH     1      35.217 -11.290  25.736  0.00  0.00    +0.000 OA
ENDROOT
TORSDOF 0
REMARK  Name = ../refined-set-2016/4ty6/4ty6_pocket.pdb
REMARK  225 active torsions:
REMARK  status: ('A' for Active; 'I' for Inactive)
REMARK    1  A    between atoms: _1  and  _5
REMARK    2  A    between atoms: _5  and  _6
REMARK    3  A    between atoms: _5  and  _8
REMARK    4  A    between atoms: _8  and  _9
REMARK    5  A    between atoms: _12  and  _14
REMARK    6  A    between atoms: _14  and  _15
REMARK    7  A    between atoms: _14  and  _17
REMARK    8  A    between atoms: _20  and  _22
REMARK    9  A    between atoms: _22  and  _23
REMARK   10  A    between atoms: _22  and  _25
REMARK   11  A    between atoms: _25  and  _26
REMARK   12  A    between atoms: _29  and  _31
REMARK   13  A    between atoms: _31  and  _32
REMARK   14  A    between atoms: _31  and  _34
REMARK   15  A    between atoms: _34  and  _35
REMARK   16  A    between atoms: _38  and  _40
REMARK   17  A    between atoms: _40  and  _41
REMARK   18  A    between atoms: _40  and  _43
REMARK   19  A    between atoms: _43  and  _44
REMARK   20  A    between atoms: _49  and  _51
REMARK   21  A    between atoms: _51  and  _52
REMARK   22  A    between atoms: _51  and  _54
REMARK   23  A    between atoms: _54  and  _55
REMARK   24  A    between atoms: _58  and  _60
REMARK   25  A    between atoms: _60  and  _61
REMARK   26  A    between atoms: _60  and  _63
REMARK   27  A    between atoms: _63  and  _64
REMARK   28  A    between atoms: _67  and  _69
REMARK   29  A    between atoms: _69  and  _70
REMARK   30  A    between atoms: _69  and  _72
REMARK   31  A    between atoms: _72  and  _73
REMARK   32  A    between atoms: _73  and  _74
REMARK   33  A    between atoms: _79  and  _81
REMARK   34  A    between atoms: _81  and  _82
REMARK   35  A    between atoms: _81  and  _84
REMARK   36  A    between atoms: _84  and  _85
REMARK   37  A    between atoms: _85  and  _86
REMARK   38  A    between atoms: _86  and  _87
REMARK   39  A    between atoms: _96  and  _98
REMARK   40  A    between atoms: _98  and  _99
REMARK   41  A    between atoms: _98  and  _101
REMARK   42  A    between atoms: _101  and  _102
REMARK   43  A    between atoms: _107  and  _109
REMARK   44  A    between atoms: _109  and  _110
REMARK   45  A    between atoms: _109  and  _112
REMARK   46  A    between atoms: _112  and  _113
REMARK   47  A    between atoms: _116  and  _118
REMARK   48  A    between atoms: _118  and  _119
REMARK   49  A    between atoms: _118  and  _121
REMARK   50  A    between atoms: _121  and  _122
REMARK   51  A    between atoms: _122  and  _157
REMARK   52  A    between atoms: _123  and  _125
REMARK   53  A    between atoms: _125  and  _126
REMARK   54  A    between atoms: _128  and  _130
REMARK   55  A    between atoms: _130  and  _131
REMARK   56  A    between atoms: _134  and  _136
REMARK   57  A    between atoms: _136  and  _137
REMARK   58  A    between atoms: _140  and  _142
REMARK   59  A    between atoms: _142  and  _143
REMARK   60  A    between atoms: _142  and  _145
REMARK   61  A    between atoms: _145  and  _146
REMARK   62  A    between atoms: _151  and  _153
REMARK   63  A    between atoms: _153  and  _154
REMARK   64  A    between atoms: _153  and  _156
REMARK   65  A    between atoms: _156  and  _157
REMARK   66  A    between atoms: _158  and  _160
REMARK   67  A    between atoms: _160  and  _161
REMARK   68  A    between atoms: _160  and  _163
REMARK   69  A    between atoms: _163  and  _164
REMARK   70  A    between atoms: _170  and  _172
REMARK   71  A    between atoms: _172  and  _173
REMARK   72  A    between atoms: _172  and  _175
REMARK   73  A    between atoms: _175  and  _176
REMARK   74  A    between atoms: _181  and  _182
REMARK   75  A    between atoms: _184  and  _186
REMARK   76  A    between atoms: _186  and  _187
REMARK   77  A    between atoms: _186  and  _189
REMARK   78  A    between atoms: _192  and  _194
REMARK   79  A    between atoms: _194  and  _195
REMARK   80  A    between atoms: _194  and  _197
REMARK   81  A    between atoms: _197  and  _198
REMARK   82  A    between atoms: _198  and  _199
REMARK   83  A    between atoms: _204  and  _206
REMARK   84  A    between atoms: _206  and  _207
REMARK   85  A    between atoms: _210  and  _212
REMARK   86  A    between atoms: _212  and  _213
REMARK   87  A    between atoms: _212  and  _215
REMARK   88  A    between atoms: _215  and  _216
REMARK   89  A    between atoms: _219  and  _221
REMARK   90  A    between atoms: _221  and  _222
REMARK   91  A    between atoms: _221  and  _224
REMARK   92  A    between atoms: _227  and  _229
REMARK   93  A    between atoms: _229  and  _230
REMARK   94  A    between atoms: _229  and  _232
REMARK   95  A    between atoms: _232  and  _233
REMARK   96  A    between atoms: _243  and  _245
REMARK   97  A    between atoms: _245  and  _246
REMARK   98  A    between atoms: _248  and  _250
REMARK   99  A    between atoms: _250  and  _251
REMARK  100  A    between atoms: _250  and  _253
REMARK  101  A    between atoms: _253  and  _254
REMARK  102  A    between atoms: _259  and  _260
REMARK  103  A    between atoms: _262  and  _264
REMARK  104  A    between atoms: _264  and  _265
REMARK  105  A    between atoms: _264  and  _267
REMARK  106  A    between atoms: _267  and  _268
REMARK  107  A    between atoms: _271  and  _273
REMARK  108  A    between atoms: _273  and  _274
REMARK  109  A    between atoms: _273  and  _276
REMARK  110  A    between atoms: _276  and  _277
REMARK  111  A    between atoms: _280  and  _282
REMARK  112  A    between atoms: _282  and  _283
REMARK  113  A    between atoms: _282  and  _285
REMARK  114  A    between atoms: _285  and  _286
REMARK  115  A    between atoms: _286  and  _287
REMARK  116  A    between atoms: _287  and  _288
REMARK  117  A    between atoms: _288  and  _289
REMARK  118  A    between atoms: _293  and  _295
REMARK  119  A    between atoms: _295  and  _296
REMARK  120  A    between atoms: _295  and  _298
REMARK  121  A    between atoms: _298  and  _299
REMARK  122  A    between atoms: _302  and  _304
REMARK  123  A    between atoms: _304  and  _305
REMARK  124  A    between atoms: _304  and  _307
REMARK  125  A    between atoms: _307  and  _308
REMARK  126  A    between atoms: _308  and  _309
REMARK  127  A    between atoms: _314  and  _316
REMARK  128  A    between atoms: _316  and  _317
REMARK  129  A    between atoms: _316  and  _319
REMARK  130  A    between atoms: _319  and  _320
REMARK  131  A    between atoms: _325  and  _326
REMARK  132  A    between atoms: _328  and  _330
REMARK  133  A    between atoms: _330  and  _331
REMARK  134  A    between atoms: _334  and  _336
REMARK  135  A    between atoms: _336  and  _337
REMARK  136  A    between atoms: _336  and  _339
REMARK  137  A    between atoms: _339  and  _340
REMARK  138  A    between atoms: _340  and  _341
REMARK  139  A    between atoms: _341  and  _342
REMARK  140  A    between atoms: _342  and  _343
REMARK  141  A    between atoms: _347  and  _349
REMARK  142  A    between atoms: _349  and  _350
REMARK  143  A    between atoms: _349  and  _352
REMARK  144  A    between atoms: _352  and  _353
REMARK  145  A    between atoms: _356  and  _358
REMARK  146  A    between atoms: _358  and  _359
REMARK  147  A    between atoms: _362  and  _364
REMARK  148  A    between atoms: _364  and  _365
REMARK  149  A    between atoms: _364  and  _367
REMARK  150  A    between atoms: _367  and  _368
REMARK  151  A    between atoms: _368  and  _482
REMARK  152  A    between atoms: _369  and  _371
REMARK  153  A    between atoms: _371  and  _372
REMARK  154  A    between atoms: _371  and  _374
REMARK  155  A    between atoms: _374  and  _375
REMARK  156  A    between atoms: _375  and  _376
REMARK  157  A    between atoms: _376  and  _377
REMARK  158  A    between atoms: _377  and  _378
REMARK  159  A    between atoms: _382  and  _384
REMARK  160  A    between atoms: _384  and  _385
REMARK  161  A    between atoms: _387  and  _389
REMARK  162  A    between atoms: _389  and  _390
REMARK  163  A    between atoms: _389  and  _392
REMARK  164  A    between atoms: _392  and  _393
REMARK  165  A    between atoms: _396  and  _398
REMARK  166  A    between atoms: _398  and  _399
REMARK  167  A    between atoms: _398  and  _401
REMARK  168  A    between atoms: _401  and  _402
REMARK  169  A    between atoms: _404  and  _406
REMARK  170  A    between atoms: _406  and  _407
REMARK  171  A    between atoms: _409  and  _411
REMARK  172  A    between atoms: _411  and  _412
REMARK  173  A    between atoms: _414  and  _416
REMARK  174  A    between atoms: _416  and  _417
REMARK  175  A    between atoms: _416  and  _419
REMARK  176  A    between atoms: _419  and  _420
REMARK  177  A    between atoms: _423  and  _425
REMARK  178  A    between atoms: _425  and  _426
REMARK  179  A    between atoms: _425  and  _428
REMARK  180  A    between atoms: _428  and  _429
REMARK  181  A    between atoms: _432  and  _434
REMARK  182  A    between atoms: _434  and  _435
REMARK  183  A    between atoms: _434  and  _437
REMARK  184  A    between atoms: _437  and  _438
REMARK  185  A    between atoms: _440  and  _442
REMARK  186  A    between atoms: _442  and  _443
REMARK  187  A    between atoms: _442  and  _445
REMARK  188  A    between atoms: _445  and  _446
REMARK  189  A    between atoms: _456  and  _458
REMARK  190  A    between atoms: _458  and  _459
REMARK  191  A    between atoms: _461  and  _463
REMARK  192  A    between atoms: _463  and  _464
REMARK  193  A    between atoms: _463  and  _466
REMARK  194  A    between atoms: _466  and  _467
REMARK  195  A    between atoms: _467  and  _468
REMARK  196  A    between atoms: _471  and  _473
REMARK  197  A    between atoms: _473  and  _474
REMARK  198  A    between atoms: _476  and  _478
REMARK  199  A    between atoms: _478  and  _479
REMARK  200  A    between atoms: _478  and  _481
REMARK  201  A    between atoms: _481  and  _482
REMARK  202  A    between atoms: _483  and  _485
REMARK  203  A    between atoms: _485  and  _486
REMARK  204  A    between atoms: _489  and  _491
REMARK  205  A    between atoms: _491  and  _492
REMARK  206  A    between atoms: _491  and  _494
REMARK  207  A    between atoms: _494  and  _495
REMARK  208  A    between atoms: _495  and  _496
REMARK  209  A    between atoms: _501  and  _503
REMARK  210  A    between atoms: _503  and  _504
REMARK  211  A    between atoms: _503  and  _506
REMARK  212  A    between atoms: _506  and  _507
REMARK  213  A    between atoms: _507  and  _508
REMARK  214  A    between atoms: _508  and  _509
REMARK  215  A    between atoms: _519  and  _520
REMARK  216  A    between atoms: _525  and  _527
REMARK  217  A    between atoms: _527  and  _528
REMARK  218  A    between atoms: _530  and  _532
REMARK  219  A    between atoms: _532  and  _533
REMARK  220  A    between atoms: _532  and  _535
REMARK  221  A    between atoms: _538  and  _540
REMARK  222  A    between atoms: _540  and  _541
REMARK  223  A    between atoms: _540  and  _543
REMARK  224  A    between atoms: _543  and  _544
REMARK  225  A    between atoms: _549  and  _550
REMARK                            x       y       z     vdW  Elec       q    Type
REMARK                         _______ _______ _______ _____ _____    ______ ____
ROOT
ATOM      1  O   HOH     1      41.205 -19.696  25.196  0.00  0.00    +0.000 OA
ENDROOT
TORSDOF 0
REMARK  Name = ../refined-set-2016/4ty6/4ty6_pocket.pdb
REMARK  225 active torsions:
REMARK  status: ('A' for Active; 'I' for Inactive)
REMARK    1  A    between atoms: _1  and  _5
REMARK    2  A    between atoms: _5  and  _6
REMARK    3  A    between atoms: _5  and  _8
REMARK    4  A    between atoms: _8  and  _9
REMARK    5  A    between atoms: _12  and  _14
REMARK    6  A    between atoms: _14  and  _15
REMARK    7  A    between atoms: _14  and  _17
REMARK    8  A    between atoms: _20  and  _22
REMARK    9  A    between atoms: _22  and  _23
REMARK   10  A    between atoms: _22  and  _25
REMARK   11  A    between atoms: _25  and  _26
REMARK   12  A    between atoms: _29  and  _31
REMARK   13  A    between atoms: _31  and  _32
REMARK   14  A    between atoms: _31  and  _34
REMARK   15  A    between atoms: _34  and  _35
REMARK   16  A    between atoms: _38  and  _40
REMARK   17  A    between atoms: _40  and  _41
REMARK   18  A    between atoms: _40  and  _43
REMARK   19  A    between atoms: _43  and  _44
REMARK   20  A    between atoms: _49  and  _51
REMARK   21  A    between atoms: _51  and  _52
REMARK   22  A    between atoms: _51  and  _54
REMARK   23  A    between atoms: _54  and  _55
REMARK   24  A    between atoms: _58  and  _60
REMARK   25  A    between atoms: _60  and  _61
REMARK   26  A    between atoms: _60  and  _63
REMARK   27  A    between atoms: _63  and  _64
REMARK   28  A    between atoms: _67  and  _69
REMARK   29  A    between atoms: _69  and  _70
REMARK   30  A    between atoms: _69  and  _72
REMARK   31  A    between atoms: _72  and  _73
REMARK   32  A    between atoms: _73  and  _74
REMARK   33  A    between atoms: _79  and  _81
REMARK   34  A    between atoms: _81  and  _82
REMARK   35  A    between atoms: _81  and  _84
REMARK   36  A    between atoms: _84  and  _85
REMARK   37  A    between atoms: _85  and  _86
REMARK   38  A    between atoms: _86  and  _87
REMARK   39  A    between atoms: _96  and  _98
REMARK   40  A    between atoms: _98  and  _99
REMARK   41  A    between atoms: _98  and  _101
REMARK   42  A    between atoms: _101  and  _102
REMARK   43  A    between atoms: _107  and  _109
REMARK   44  A    between atoms: _109  and  _110
REMARK   45  A    between atoms: _109  and  _112
REMARK   46  A    between atoms: _112  and  _113
REMARK   47  A    between atoms: _116  and  _118
REMARK   48  A    between atoms: _118  and  _119
REMARK   49  A    between atoms: _118  and  _121
REMARK   50  A    between atoms: _121  and  _122
REMARK   51  A    between atoms: _122  and  _157
REMARK   52  A    between atoms: _123  and  _125
REMARK   53  A    between atoms: _125  and  _126
REMARK   54  A    between atoms: _128  and  _130
REMARK   55  A    between atoms: _130  and  _131
REMARK   56  A    between atoms: _134  and  _136
REMARK   57  A    between atoms: _136  and  _137
REMARK   58  A    between atoms: _140  and  _142
REMARK   59  A    between atoms: _142  and  _143
REMARK   60  A    between atoms: _142  and  _145
REMARK   61  A    between atoms: _145  and  _146
REMARK   62  A    between atoms: _151  and  _153
REMARK   63  A    between atoms: _153  and  _154
REMARK   64  A    between atoms: _153  and  _156
REMARK   65  A    between atoms: _156  and  _157
REMARK   66  A    between atoms: _158  and  _160
REMARK   67  A    between atoms: _160  and  _161
REMARK   68  A    between atoms: _160  and  _163
REMARK   69  A    between atoms: _163  and  _164
REMARK   70  A    between atoms: _170  and  _172
REMARK   71  A    between atoms: _172  and  _173
REMARK   72  A    between atoms: _172  and  _175
REMARK   73  A    between atoms: _175  and  _176
REMARK   74  A    between atoms: _181  and  _182
REMARK   75  A    between atoms: _184  and  _186
REMARK   76  A    between atoms: _186  and  _187
REMARK   77  A    between atoms: _186  and  _189
REMARK   78  A    between atoms: _192  and  _194
REMARK   79  A    between atoms: _194  and  _195
REMARK   80  A    between atoms: _194  and  _197
REMARK   81  A    between atoms: _197  and  _198
REMARK   82  A    between atoms: _198  and  _199
REMARK   83  A    between atoms: _204  and  _206
REMARK   84  A    between atoms: _206  and  _207
REMARK   85  A    between atoms: _210  and  _212
REMARK   86  A    between atoms: _212  and  _213
REMARK   87  A    between atoms: _212  and  _215
REMARK   88  A    between atoms: _215  and  _216
REMARK   89  A    between atoms: _219  and  _221
REMARK   90  A    between atoms: _221  and  _222
REMARK   91  A    between atoms: _221  and  _224
REMARK   92  A    between atoms: _227  and  _229
REMARK   93  A    between atoms: _229  and  _230
REMARK   94  A    between atoms: _229  and  _232
REMARK   95  A    between atoms: _232  and  _233
REMARK   96  A    between atoms: _243  and  _245
REMARK   97  A    between atoms: _245  and  _246
REMARK   98  A    between atoms: _248  and  _250
REMARK   99  A    between atoms: _250  and  _251
REMARK  100  A    between atoms: _250  and  _253
REMARK  101  A    between atoms: _253  and  _254
REMARK  102  A    between atoms: _259  and  _260
REMARK  103  A    between atoms: _262  and  _264
REMARK  104  A    between atoms: _264  and  _265
REMARK  105  A    between atoms: _264  and  _267
REMARK  106  A    between atoms: _267  and  _268
REMARK  107  A    between atoms: _271  and  _273
REMARK  108  A    between atoms: _273  and  _274
REMARK  109  A    between atoms: _273  and  _276
REMARK  110  A    between atoms: _276  and  _277
REMARK  111  A    between atoms: _280  and  _282
REMARK  112  A    between atoms: _282  and  _283
REMARK  113  A    between atoms: _282  and  _285
REMARK  114  A    between atoms: _285  and  _286
REMARK  115  A    between atoms: _286  and  _287
REMARK  116  A    between atoms: _287  and  _288
REMARK  117  A    between atoms: _288  and  _289
REMARK  118  A    between atoms: _293  and  _295
REMARK  119  A    between atoms: _295  and  _296
REMARK  120  A    between atoms: _295  and  _298
REMARK  121  A    between atoms: _298  and  _299
REMARK  122  A    between atoms: _302  and  _304
REMARK  123  A    between atoms: _304  and  _305
REMARK  124  A    between atoms: _304  and  _307
REMARK  125  A    between atoms: _307  and  _308
REMARK  126  A    between atoms: _308  and  _309
REMARK  127  A    between atoms: _314  and  _316
REMARK  128  A    between atoms: _316  and  _317
REMARK  129  A    between atoms: _316  and  _319
REMARK  130  A    between atoms: _319  and  _320
REMARK  131  A    between atoms: _325  and  _326
REMARK  132  A    between atoms: _328  and  _330
REMARK  133  A    between atoms: _330  and  _331
REMARK  134  A    between atoms: _334  and  _336
REMARK  135  A    between atoms: _336  and  _337
REMARK  136  A    between atoms: _336  and  _339
REMARK  137  A    between atoms: _339  and  _340
REMARK  138  A    between atoms: _340  and  _341
REMARK  139  A    between atoms: _341  and  _342
REMARK  140  A    between atoms: _342  and  _343
REMARK  141  A    between atoms: _347  and  _349
REMARK  142  A    between atoms: _349  and  _350
REMARK  143  A    between atoms: _349  and  _352
REMARK  144  A    between atoms: _352  and  _353
REMARK  145  A    between atoms: _356  and  _358
REMARK  146  A    between atoms: _358  and  _359
REMARK  147  A    between atoms: _362  and  _364
REMARK  148  A    between atoms: _364  and  _365
REMARK  149  A    between atoms: _364  and  _367
REMARK  150  A    between atoms: _367  and  _368
REMARK  151  A    between atoms: _368  and  _482
REMARK  152  A    between atoms: _369  and  _371
REMARK  153  A    between atoms: _371  and  _372
REMARK  154  A    between atoms: _371  and  _374
REMARK  155  A    between atoms: _374  and  _375
REMARK  156  A    between atoms: _375  and  _376
REMARK  157  A    between atoms: _376  and  _377
REMARK  158  A    between atoms: _377  and  _378
REMARK  159  A    between atoms: _382  and  _384
REMARK  160  A    between atoms: _384  and  _385
REMARK  161  A    between atoms: _387  and  _389
REMARK  162  A    between atoms: _389  and  _390
REMARK  163  A    between atoms: _389  and  _392
REMARK  164  A    between atoms: _392  and  _393
REMARK  165  A    between atoms: _396  and  _398
REMARK  166  A    between atoms: _398  and  _399
REMARK  167  A    between atoms: _398  and  _401
REMARK  168  A    between atoms: _401  and  _402
REMARK  169  A    between atoms: _404  and  _406
REMARK  170  A    between atoms: _406  and  _407
REMARK  171  A    between atoms: _409  and  _411
REMARK  172  A    between atoms: _411  and  _412
REMARK  173  A    between atoms: _414  and  _416
REMARK  174  A    between atoms: _416  and  _417
REMARK  175  A    between atoms: _416  and  _419
REMARK  176  A    between atoms: _419  and  _420
REMARK  177  A    between atoms: _423  and  _425
REMARK  178  A    between atoms: _425  and  _426
REMARK  179  A    between atoms: _425  and  _428
REMARK  180  A    between atoms: _428  and  _429
REMARK  181  A    between atoms: _432  and  _434
REMARK  182  A    between atoms: _434  and  _435
REMARK  183  A    between atoms: _434  and  _437
REMARK  184  A    between atoms: _437  and  _438
REMARK  185  A    between atoms: _440  and  _442
REMARK  186  A    between atoms: _442  and  _443
REMARK  187  A    between atoms: _442  and  _445
REMARK  188  A    between atoms: _445  and  _446
REMARK  189  A    between atoms: _456  and  _458
REMARK  190  A    between atoms: _458  and  _459
REMARK  191  A    between atoms: _461  and  _463
REMARK  192  A    between atoms: _463  and  _464
REMARK  193  A    between atoms: _463  and  _466
REMARK  194  A    between atoms: _466  and  _467
REMARK  195  A    between atoms: _467  and  _468
REMARK  196  A    between atoms: _471  and  _473
REMARK  197  A    between atoms: _473  and  _474
REMARK  198  A    between atoms: _476  and  _478
REMARK  199  A    between atoms: _478  and  _479
REMARK  200  A    between atoms: _478  and  _481
REMARK  201  A    between atoms: _481  and  _482
REMARK  202  A    between atoms: _483  and  _485
REMARK  203  A    between atoms: _485  and  _486
REMARK  204  A    between atoms: _489  and  _491
REMARK  205  A    between atoms: _491  and  _492
REMARK  206  A    between atoms: _491  and  _494
REMARK  207  A    between atoms: _494  and  _495
REMARK  208  A    between atoms: _495  and  _496
REMARK  209  A    between atoms: _501  and  _503
REMARK  210  A    between atoms: _503  and  _504
REMARK  211  A    between atoms: _503  and  _506
REMARK  212  A    between atoms: _506  and  _507
REMARK  213  A    between atoms: _507  and  _508
REMARK  214  A    between atoms: _508  and  _509
REMARK  215  A    between atoms: _519  and  _520
REMARK  216  A    between atoms: _525  and  _527
REMARK  217  A    between atoms: _527  and  _528
REMARK  218  A    between atoms: _530  and  _532
REMARK  219  A    between atoms: _532  and  _533
REMARK  220  A    between atoms: _532  and  _535
REMARK  221  A    between atoms: _538  and  _540
REMARK  222  A    between atoms: _540  and  _541
REMARK  223  A    between atoms: _540  and  _543
REMARK  224  A    between atoms: _543  and  _544
REMARK  225  A    between atoms: _549  and  _550
REMARK                            x       y       z     vdW  Elec       q    Type
REMARK                         _______ _______ _______ _____ _____    ______ ____
ROOT
ATOM      1  O   HOH     1      51.126 -22.363  34.998  0.00  0.00    +0.000 OA
ENDROOT
TORSDOF 0
REMARK  Name = ../refined-set-2016/4ty6/4ty6_pocket.pdb
REMARK  225 active torsions:
REMARK  status: ('A' for Active; 'I' for Inactive)
REMARK    1  A    between atoms: _1  and  _5
REMARK    2  A    between atoms: _5  and  _6
REMARK    3  A    between atoms: _5  and  _8
REMARK    4  A    between atoms: _8  and  _9
REMARK    5  A    between atoms: _12  and  _14
REMARK    6  A    between atoms: _14  and  _15
REMARK    7  A    between atoms: _14  and  _17
REMARK    8  A    between atoms: _20  and  _22
REMARK    9  A    between atoms: _22  and  _23
REMARK   10  A    between atoms: _22  and  _25
REMARK   11  A    between atoms: _25  and  _26
REMARK   12  A    between atoms: _29  and  _31
REMARK   13  A    between atoms: _31  and  _32
REMARK   14  A    between atoms: _31  and  _34
REMARK   15  A    between atoms: _34  and  _35
REMARK   16  A    between atoms: _38  and  _40
REMARK   17  A    between atoms: _40  and  _41
REMARK   18  A    between atoms: _40  and  _43
REMARK   19  A    between atoms: _43  and  _44
REMARK   20  A    between atoms: _49  and  _51
REMARK   21  A    between atoms: _51  and  _52
REMARK   22  A    between atoms: _51  and  _54
REMARK   23  A    between atoms: _54  and  _55
REMARK   24  A    between atoms: _58  and  _60
REMARK   25  A    between atoms: _60  and  _61
REMARK   26  A    between atoms: _60  and  _63
REMARK   27  A    between atoms: _63  and  _64
REMARK   28  A    between atoms: _67  and  _69
REMARK   29  A    between atoms: _69  and  _70
REMARK   30  A    between atoms: _69  and  _72
REMARK   31  A    between atoms: _72  and  _73
REMARK   32  A    between atoms: _73  and  _74
REMARK   33  A    between atoms: _79  and  _81
REMARK   34  A    between atoms: _81  and  _82
REMARK   35  A    between atoms: _81  and  _84
REMARK   36  A    between atoms: _84  and  _85
REMARK   37  A    between atoms: _85  and  _86
REMARK   38  A    between atoms: _86  and  _87
REMARK   39  A    between atoms: _96  and  _98
REMARK   40  A    between atoms: _98  and  _99
REMARK   41  A    between atoms: _98  and  _101
REMARK   42  A    between atoms: _101  and  _102
REMARK   43  A    between atoms: _107  and  _109
REMARK   44  A    between atoms: _109  and  _110
REMARK   45  A    between atoms: _109  and  _112
REMARK   46  A    between atoms: _112  and  _113
REMARK   47  A    between atoms: _116  and  _118
REMARK   48  A    between atoms: _118  and  _119
REMARK   49  A    between atoms: _118  and  _121
REMARK   50  A    between atoms: _121  and  _122
REMARK   51  A    between atoms: _122  and  _157
REMARK   52  A    between atoms: _123  and  _125
REMARK   53  A    between atoms: _125  and  _126
REMARK   54  A    between atoms: _128  and  _130
REMARK   55  A    between atoms: _130  and  _131
REMARK   56  A    between atoms: _134  and  _136
REMARK   57  A    between atoms: _136  and  _137
REMARK   58  A    between atoms: _140  and  _142
REMARK   59  A    between atoms: _142  and  _143
REMARK   60  A    between atoms: _142  and  _145
REMARK   61  A    between atoms: _145  and  _146
REMARK   62  A    between atoms: _151  and  _153
REMARK   63  A    between atoms: _153  and  _154
REMARK   64  A    between atoms: _153  and  _156
REMARK   65  A    between atoms: _156  and  _157
REMARK   66  A    between atoms: _158  and  _160
REMARK   67  A    between atoms: _160  and  _161
REMARK   68  A    between atoms: _160  and  _163
REMARK   69  A    between atoms: _163  and  _164
REMARK   70  A    between atoms: _170  and  _172
REMARK   71  A    between atoms: _172  and  _173
REMARK   72  A    between atoms: _172  and  _175
REMARK   73  A    between atoms: _175  and  _176
REMARK   74  A    between atoms: _181  and  _182
REMARK   75  A    between atoms: _184  and  _186
REMARK   76  A    between atoms: _186  and  _187
REMARK   77  A    between atoms: _186  and  _189
REMARK   78  A    between atoms: _192  and  _194
REMARK   79  A    between atoms: _194  and  _195
REMARK   80  A    between atoms: _194  and  _197
REMARK   81  A    between atoms: _197  and  _198
REMARK   82  A    between atoms: _198  and  _199
REMARK   83  A    between atoms: _204  and  _206
REMARK   84  A    between atoms: _206  and  _207
REMARK   85  A    between atoms: _210  and  _212
REMARK   86  A    between atoms: _212  and  _213
REMARK   87  A    between atoms: _212  and  _215
REMARK   88  A    between atoms: _215  and  _216
REMARK   89  A    between atoms: _219  and  _221
REMARK   90  A    between atoms: _221  and  _222
REMARK   91  A    between atoms: _221  and  _224
REMARK   92  A    between atoms: _227  and  _229
REMARK   93  A    between atoms: _229  and  _230
REMARK   94  A    between atoms: _229  and  _232
REMARK   95  A    between atoms: _232  and  _233
REMARK   96  A    between atoms: _243  and  _245
REMARK   97  A    between atoms: _245  and  _246
REMARK   98  A    between atoms: _248  and  _250
REMARK   99  A    between atoms: _250  and  _251
REMARK  100  A    between atoms: _250  and  _253
REMARK  101  A    between atoms: _253  and  _254
REMARK  102  A    between atoms: _259  and  _260
REMARK  103  A    between atoms: _262  and  _264
REMARK  104  A    between atoms: _264  and  _265
REMARK  105  A    between atoms: _264  and  _267
REMARK  106  A    between atoms: _267  and  _268
REMARK  107  A    between atoms: _271  and  _273
REMARK  108  A    between atoms: _273  and  _274
REMARK  109  A    between atoms: _273  and  _276
REMARK  110  A    between atoms: _276  and  _277
REMARK  111  A    between atoms: _280  and  _282
REMARK  112  A    between atoms: _282  and  _283
REMARK  113  A    between atoms: _282  and  _285
REMARK  114  A    between atoms: _285  and  _286
REMARK  115  A    between atoms: _286  and  _287
REMARK  116  A    between atoms: _287  and  _288
REMARK  117  A    between atoms: _288  and  _289
REMARK  118  A    between atoms: _293  and  _295
REMARK  119  A    between atoms: _295  and  _296
REMARK  120  A    between atoms: _295  and  _298
REMARK  121  A    between atoms: _298  and  _299
REMARK  122  A    between atoms: _302  and  _304
REMARK  123  A    between atoms: _304  and  _305
REMARK  124  A    between atoms: _304  and  _307
REMARK  125  A    between atoms: _307  and  _308
REMARK  126  A    between atoms: _308  and  _309
REMARK  127  A    between atoms: _314  and  _316
REMARK  128  A    between atoms: _316  and  _317
REMARK  129  A    between atoms: _316  and  _319
REMARK  130  A    between atoms: _319  and  _320
REMARK  131  A    between atoms: _325  and  _326
REMARK  132  A    between atoms: _328  and  _330
REMARK  133  A    between atoms: _330  and  _331
REMARK  134  A    between atoms: _334  and  _336
REMARK  135  A    between atoms: _336  and  _337
REMARK  136  A    between atoms: _336  and  _339
REMARK  137  A    between atoms: _339  and  _340
REMARK  138  A    between atoms: _340  and  _341
REMARK  139  A    between atoms: _341  and  _342
REMARK  140  A    between atoms: _342  and  _343
REMARK  141  A    between atoms: _347  and  _349
REMARK  142  A    between atoms: _349  and  _350
REMARK  143  A    between atoms: _349  and  _352
REMARK  144  A    between atoms: _352  and  _353
REMARK  145  A    between atoms: _356  and  _358
REMARK  146  A    between atoms: _358  and  _359
REMARK  147  A    between atoms: _362  and  _364
REMARK  148  A    between atoms: _364  and  _365
REMARK  149  A    between atoms: _364  and  _367
REMARK  150  A    between atoms: _367  and  _368
REMARK  151  A    between atoms: _368  and  _482
REMARK  152  A    between atoms: _369  and  _371
REMARK  153  A    between atoms: _371  and  _372
REMARK  154  A    between atoms: _371  and  _374
REMARK  155  A    between atoms: _374  and  _375
REMARK  156  A    between atoms: _375  and  _376
REMARK  157  A    between atoms: _376  and  _377
REMARK  158  A    between atoms: _377  and  _378
REMARK  159  A    between atoms: _382  and  _384
REMARK  160  A    between atoms: _384  and  _385
REMARK  161  A    between atoms: _387  and  _389
REMARK  162  A    between atoms: _389  and  _390
REMARK  163  A    between atoms: _389  and  _392
REMARK  164  A    between atoms: _392  and  _393
REMARK  165  A    between atoms: _396  and  _398
REMARK  166  A    between atoms: _398  and  _399
REMARK  167  A    between atoms: _398  and  _401
REMARK  168  A    between atoms: _401  and  _402
REMARK  169  A    between atoms: _404  and  _406
REMARK  170  A    between atoms: _406  and  _407
REMARK  171  A    between atoms: _409  and  _411
REMARK  172  A    between atoms: _411  and  _412
REMARK  173  A    between atoms: _414  and  _416
REMARK  174  A    between atoms: _416  and  _417
REMARK  175  A    between atoms: _416  and  _419
REMARK  176  A    between atoms: _419  and  _420
REMARK  177  A    between atoms: _423  and  _425
REMARK  178  A    between atoms: _425  and  _426
REMARK  179  A    between atoms: _425  and  _428
REMARK  180  A    between atoms: _428  and  _429
REMARK  181  A    between atoms: _432  and  _434
REMARK  182  A    between atoms: _434  and  _435
REMARK  183  A    between atoms: _434  and  _437
REMARK  184  A    between atoms: _437  and  _438
REMARK  185  A    between atoms: _440  and  _442
REMARK  186  A    between atoms: _442  and  _443
REMARK  187  A    between atoms: _442  and  _445
REMARK  188  A    between atoms: _445  and  _446
REMARK  189  A    between atoms: _456  and  _458
REMARK  190  A    between atoms: _458  and  _459
REMARK  191  A    between atoms: _461  and  _463
REMARK  192  A    between atoms: _463  and  _464
REMARK  193  A    between atoms: _463  and  _466
REMARK  194  A    between atoms: _466  and  _467
REMARK  195  A    between atoms: _467  and  _468
REMARK  196  A    between atoms: _471  and  _473
REMARK  197  A    between atoms: _473  and  _474
REMARK  198  A    between atoms: _476  and  _478
REMARK  199  A    between atoms: _478  and  _479
REMARK  200  A    between atoms: _478  and  _481
REMARK  201  A    between atoms: _481  and  _482
REMARK  202  A    between atoms: _483  and  _485
REMARK  203  A    between atoms: _485  and  _486
REMARK  204  A    between atoms: _489  and  _491
REMARK  205  A    between atoms: _491  and  _492
REMARK  206  A    between atoms: _491  and  _494
REMARK  207  A    between atoms: _494  and  _495
REMARK  208  A    between atoms: _495  and  _496
REMARK  209  A    between atoms: _501  and  _503
REMARK  210  A    between atoms: _503  and  _504
REMARK  211  A    between atoms: _503  and  _506
REMARK  212  A    between atoms: _506  and  _507
REMARK  213  A    between atoms: _507  and  _508
REMARK  214  A    between atoms: _508  and  _509
REMARK  215  A    between atoms: _519  and  _520
REMARK  216  A    between atoms: _525  and  _527
REMARK  217  A    between atoms: _527  and  _528
REMARK  218  A    between atoms: _530  and  _532
REMARK  219  A    between atoms: _532  and  _533
REMARK  220  A    between atoms: _532  and  _535
REMARK  221  A    between atoms: _538  and  _540
REMARK  222  A    between atoms: _540  and  _541
REMARK  223  A    between atoms: _540  and  _543
REMARK  224  A    between atoms: _543  and  _544
REMARK  225  A    between atoms: _549  and  _550
REMARK                            x       y       z     vdW  Elec       q    Type
REMARK                         _______ _______ _______ _____ _____    ______ ____
ROOT
ATOM      1  O   HOH     1      52.187 -18.015  36.503  0.00  0.00    +0.000 OA
ENDROOT
TORSDOF 0
REMARK  Name = ../refined-set-2016/4ty6/4ty6_pocket.pdb
REMARK  225 active torsions:
REMARK  status: ('A' for Active; 'I' for Inactive)
REMARK    1  A    between atoms: _1  and  _5
REMARK    2  A    between atoms: _5  and  _6
REMARK    3  A    between atoms: _5  and  _8
REMARK    4  A    between atoms: _8  and  _9
REMARK    5  A    between atoms: _12  and  _14
REMARK    6  A    between atoms: _14  and  _15
REMARK    7  A    between atoms: _14  and  _17
REMARK    8  A    between atoms: _20  and  _22
REMARK    9  A    between atoms: _22  and  _23
REMARK   10  A    between atoms: _22  and  _25
REMARK   11  A    between atoms: _25  and  _26
REMARK   12  A    between atoms: _29  and  _31
REMARK   13  A    between atoms: _31  and  _32
REMARK   14  A    between atoms: _31  and  _34
REMARK   15  A    between atoms: _34  and  _35
REMARK   16  A    between atoms: _38  and  _40
REMARK   17  A    between atoms: _40  and  _41
REMARK   18  A    between atoms: _40  and  _43
REMARK   19  A    between atoms: _43  and  _44
REMARK   20  A    between atoms: _49  and  _51
REMARK   21  A    between atoms: _51  and  _52
REMARK   22  A    between atoms: _51  and  _54
REMARK   23  A    between atoms: _54  and  _55
REMARK   24  A    between atoms: _58  and  _60
REMARK   25  A    between atoms: _60  and  _61
REMARK   26  A    between atoms: _60  and  _63
REMARK   27  A    between atoms: _63  and  _64
REMARK   28  A    between atoms: _67  and  _69
REMARK   29  A    between atoms: _69  and  _70
REMARK   30  A    between atoms: _69  and  _72
REMARK   31  A    between atoms: _72  and  _73
REMARK   32  A    between atoms: _73  and  _74
REMARK   33  A    between atoms: _79  and  _81
REMARK   34  A    between atoms: _81  and  _82
REMARK   35  A    between atoms: _81  and  _84
REMARK   36  A    between atoms: _84  and  _85
REMARK   37  A    between atoms: _85  and  _86
REMARK   38  A    between atoms: _86  and  _87
REMARK   39  A    between atoms: _96  and  _98
REMARK   40  A    between atoms: _98  and  _99
REMARK   41  A    between atoms: _98  and  _101
REMARK   42  A    between atoms: _101  and  _102
REMARK   43  A    between atoms: _107  and  _109
REMARK   44  A    between atoms: _109  and  _110
REMARK   45  A    between atoms: _109  and  _112
REMARK   46  A    between atoms: _112  and  _113
REMARK   47  A    between atoms: _116  and  _118
REMARK   48  A    between atoms: _118  and  _119
REMARK   49  A    between atoms: _118  and  _121
REMARK   50  A    between atoms: _121  and  _122
REMARK   51  A    between atoms: _122  and  _157
REMARK   52  A    between atoms: _123  and  _125
REMARK   53  A    between atoms: _125  and  _126
REMARK   54  A    between atoms: _128  and  _130
REMARK   55  A    between atoms: _130  and  _131
REMARK   56  A    between atoms: _134  and  _136
REMARK   57  A    between atoms: _136  and  _137
REMARK   58  A    between atoms: _140  and  _142
REMARK   59  A    between atoms: _142  and  _143
REMARK   60  A    between atoms: _142  and  _145
REMARK   61  A    between atoms: _145  and  _146
REMARK   62  A    between atoms: _151  and  _153
REMARK   63  A    between atoms: _153  and  _154
REMARK   64  A    between atoms: _153  and  _156
REMARK   65  A    between atoms: _156  and  _157
REMARK   66  A    between atoms: _158  and  _160
REMARK   67  A    between atoms: _160  and  _161
REMARK   68  A    between atoms: _160  and  _163
REMARK   69  A    between atoms: _163  and  _164
REMARK   70  A    between atoms: _170  and  _172
REMARK   71  A    between atoms: _172  and  _173
REMARK   72  A    between atoms: _172  and  _175
REMARK   73  A    between atoms: _175  and  _176
REMARK   74  A    between atoms: _181  and  _182
REMARK   75  A    between atoms: _184  and  _186
REMARK   76  A    between atoms: _186  and  _187
REMARK   77  A    between atoms: _186  and  _189
REMARK   78  A    between atoms: _192  and  _194
REMARK   79  A    between atoms: _194  and  _195
REMARK   80  A    between atoms: _194  and  _197
REMARK   81  A    between atoms: _197  and  _198
REMARK   82  A    between atoms: _198  and  _199
REMARK   83  A    between atoms: _204  and  _206
REMARK   84  A    between atoms: _206  and  _207
REMARK   85  A    between atoms: _210  and  _212
REMARK   86  A    between atoms: _212  and  _213
REMARK   87  A    between atoms: _212  and  _215
REMARK   88  A    between atoms: _215  and  _216
REMARK   89  A    between atoms: _219  and  _221
REMARK   90  A    between atoms: _221  and  _222
REMARK   91  A    between atoms: _221  and  _224
REMARK   92  A    between atoms: _227  and  _229
REMARK   93  A    between atoms: _229  and  _230
REMARK   94  A    between atoms: _229  and  _232
REMARK   95  A    between atoms: _232  and  _233
REMARK   96  A    between atoms: _243  and  _245
REMARK   97  A    between atoms: _245  and  _246
REMARK   98  A    between atoms: _248  and  _250
REMARK   99  A    between atoms: _250  and  _251
REMARK  100  A    between atoms: _250  and  _253
REMARK  101  A    between atoms: _253  and  _254
REMARK  102  A    between atoms: _259  and  _260
REMARK  103  A    between atoms: _262  and  _264
REMARK  104  A    between atoms: _264  and  _265
REMARK  105  A    between atoms: _264  and  _267
REMARK  106  A    between atoms: _267  and  _268
REMARK  107  A    between atoms: _271  and  _273
REMARK  108  A    between atoms: _273  and  _274
REMARK  109  A    between atoms: _273  and  _276
REMARK  110  A    between atoms: _276  and  _277
REMARK  111  A    between atoms: _280  and  _282
REMARK  112  A    between atoms: _282  and  _283
REMARK  113  A    between atoms: _282  and  _285
REMARK  114  A    between atoms: _285  and  _286
REMARK  115  A    between atoms: _286  and  _287
REMARK  116  A    between atoms: _287  and  _288
REMARK  117  A    between atoms: _288  and  _289
REMARK  118  A    between atoms: _293  and  _295
REMARK  119  A    between atoms: _295  and  _296
REMARK  120  A    between atoms: _295  and  _298
REMARK  121  A    between atoms: _298  and  _299
REMARK  122  A    between atoms: _302  and  _304
REMARK  123  A    between atoms: _304  and  _305
REMARK  124  A    between atoms: _304  and  _307
REMARK  125  A    between atoms: _307  and  _308
REMARK  126  A    between atoms: _308  and  _309
REMARK  127  A    between atoms: _314  and  _316
REMARK  128  A    between atoms: _316  and  _317
REMARK  129  A    between atoms: _316  and  _319
REMARK  130  A    between atoms: _319  and  _320
REMARK  131  A    between atoms: _325  and  _326
REMARK  132  A    between atoms: _328  and  _330
REMARK  133  A    between atoms: _330  and  _331
REMARK  134  A    between atoms: _334  and  _336
REMARK  135  A    between atoms: _336  and  _337
REMARK  136  A    between atoms: _336  and  _339
REMARK  137  A    between atoms: _339  and  _340
REMARK  138  A    between atoms: _340  and  _341
REMARK  139  A    between atoms: _341  and  _342
REMARK  140  A    between atoms: _342  and  _343
REMARK  141  A    between atoms: _347  and  _349
REMARK  142  A    between atoms: _349  and  _350
REMARK  143  A    between atoms: _349  and  _352
REMARK  144  A    between atoms: _352  and  _353
REMARK  145  A    between atoms: _356  and  _358
REMARK  146  A    between atoms: _358  and  _359
REMARK  147  A    between atoms: _362  and  _364
REMARK  148  A    between atoms: _364  and  _365
REMARK  149  A    between atoms: _364  and  _367
REMARK  150  A    between atoms: _367  and  _368
REMARK  151  A    between atoms: _368  and  _482
REMARK  152  A    between atoms: _369  and  _371
REMARK  153  A    between atoms: _371  and  _372
REMARK  154  A    between atoms: _371  and  _374
REMARK  155  A    between atoms: _374  and  _375
REMARK  156  A    between atoms: _375  and  _376
REMARK  157  A    between atoms: _376  and  _377
REMARK  158  A    between atoms: _377  and  _378
REMARK  159  A    between atoms: _382  and  _384
REMARK  160  A    between atoms: _384  and  _385
REMARK  161  A    between atoms: _387  and  _389
REMARK  162  A    between atoms: _389  and  _390
REMARK  163  A    between atoms: _389  and  _392
REMARK  164  A    between atoms: _392  and  _393
REMARK  165  A    between atoms: _396  and  _398
REMARK  166  A    between atoms: _398  and  _399
REMARK  167  A    between atoms: _398  and  _401
REMARK  168  A    between atoms: _401  and  _402
REMARK  169  A    between atoms: _404  and  _406
REMARK  170  A    between atoms: _406  and  _407
REMARK  171  A    between atoms: _409  and  _411
REMARK  172  A    between atoms: _411  and  _412
REMARK  173  A    between atoms: _414  and  _416
REMARK  174  A    between atoms: _416  and  _417
REMARK  175  A    between atoms: _416  and  _419
REMARK  176  A    between atoms: _419  and  _420
REMARK  177  A    between atoms: _423  and  _425
REMARK  178  A    between atoms: _425  and  _426
REMARK  179  A    between atoms: _425  and  _428
REMARK  180  A    between atoms: _428  and  _429
REMARK  181  A    between atoms: _432  and  _434
REMARK  182  A    between atoms: _434  and  _435
REMARK  183  A    between atoms: _434  and  _437
REMARK  184  A    between atoms: _437  and  _438
REMARK  185  A    between atoms: _440  and  _442
REMARK  186  A    between atoms: _442  and  _443
REMARK  187  A    between atoms: _442  and  _445
REMARK  188  A    between atoms: _445  and  _446
REMARK  189  A    between atoms: _456  and  _458
REMARK  190  A    between atoms: _458  and  _459
REMARK  191  A    between atoms: _461  and  _463
REMARK  192  A    between atoms: _463  and  _464
REMARK  193  A    between atoms: _463  and  _466
REMARK  194  A    between atoms: _466  and  _467
REMARK  195  A    between atoms: _467  and  _468
REMARK  196  A    between atoms: _471  and  _473
REMARK  197  A    between atoms: _473  and  _474
REMARK  198  A    between atoms: _476  and  _478
REMARK  199  A    between atoms: _478  and  _479
REMARK  200  A    between atoms: _478  and  _481
REMARK  201  A    between atoms: _481  and  _482
REMARK  202  A    between atoms: _483  and  _485
REMARK  203  A    between atoms: _485  and  _486
REMARK  204  A    between atoms: _489  and  _491
REMARK  205  A    between atoms: _491  and  _492
REMARK  206  A    between atoms: _491  and  _494
REMARK  207  A    between atoms: _494  and  _495
REMARK  208  A    between atoms: _495  and  _496
REMARK  209  A    between atoms: _501  and  _503
REMARK  210  A    between atoms: _503  and  _504
REMARK  211  A    between atoms: _503  and  _506
REMARK  212  A    between atoms: _506  and  _507
REMARK  213  A    between atoms: _507  and  _508
REMARK  214  A    between atoms: _508  and  _509
REMARK  215  A    between atoms: _519  and  _520
REMARK  216  A    between atoms: _525  and  _527
REMARK  217  A    between atoms: _527  and  _528
REMARK  218  A    between atoms: _530  and  _532
REMARK  219  A    between atoms: _532  and  _533
REMARK  220  A    between atoms: _532  and  _535
REMARK  221  A    between atoms: _538  and  _540
REMARK  222  A    between atoms: _540  and  _541
REMARK  223  A    between atoms: _540  and  _543
REMARK  224  A    between atoms: _543  and  _544
REMARK  225  A    between atoms: _549  and  _550
REMARK                            x       y       z     vdW  Elec       q    Type
REMARK                         _______ _______ _______ _____ _____    ______ ____
ROOT
ATOM      1  O   HOH     1      47.762 -19.332  25.995  0.00  0.00    +0.000 OA
ENDROOT
TORSDOF 0
REMARK  Name = ../refined-set-2016/4ty6/4ty6_pocket.pdb
REMARK  225 active torsions:
REMARK  status: ('A' for Active; 'I' for Inactive)
REMARK    1  A    between atoms: _1  and  _5
REMARK    2  A    between atoms: _5  and  _6
REMARK    3  A    between atoms: _5  and  _8
REMARK    4  A    between atoms: _8  and  _9
REMARK    5  A    between atoms: _12  and  _14
REMARK    6  A    between atoms: _14  and  _15
REMARK    7  A    between atoms: _14  and  _17
REMARK    8  A    between atoms: _20  and  _22
REMARK    9  A    between atoms: _22  and  _23
REMARK   10  A    between atoms: _22  and  _25
REMARK   11  A    between atoms: _25  and  _26
REMARK   12  A    between atoms: _29  and  _31
REMARK   13  A    between atoms: _31  and  _32
REMARK   14  A    between atoms: _31  and  _34
REMARK   15  A    between atoms: _34  and  _35
REMARK   16  A    between atoms: _38  and  _40
REMARK   17  A    between atoms: _40  and  _41
REMARK   18  A    between atoms: _40  and  _43
REMARK   19  A    between atoms: _43  and  _44
REMARK   20  A    between atoms: _49  and  _51
REMARK   21  A    between atoms: _51  and  _52
REMARK   22  A    between atoms: _51  and  _54
REMARK   23  A    between atoms: _54  and  _55
REMARK   24  A    between atoms: _58  and  _60
REMARK   25  A    between atoms: _60  and  _61
REMARK   26  A    between atoms: _60  and  _63
REMARK   27  A    between atoms: _63  and  _64
REMARK   28  A    between atoms: _67  and  _69
REMARK   29  A    between atoms: _69  and  _70
REMARK   30  A    between atoms: _69  and  _72
REMARK   31  A    between atoms: _72  and  _73
REMARK   32  A    between atoms: _73  and  _74
REMARK   33  A    between atoms: _79  and  _81
REMARK   34  A    between atoms: _81  and  _82
REMARK   35  A    between atoms: _81  and  _84
REMARK   36  A    between atoms: _84  and  _85
REMARK   37  A    between atoms: _85  and  _86
REMARK   38  A    between atoms: _86  and  _87
REMARK   39  A    between atoms: _96  and  _98
REMARK   40  A    between atoms: _98  and  _99
REMARK   41  A    between atoms: _98  and  _101
REMARK   42  A    between atoms: _101  and  _102
REMARK   43  A    between atoms: _107  and  _109
REMARK   44  A    between atoms: _109  and  _110
REMARK   45  A    between atoms: _109  and  _112
REMARK   46  A    between atoms: _112  and  _113
REMARK   47  A    between atoms: _116  and  _118
REMARK   48  A    between atoms: _118  and  _119
REMARK   49  A    between atoms: _118  and  _121
REMARK   50  A    between atoms: _121  and  _122
REMARK   51  A    between atoms: _122  and  _157
REMARK   52  A    between atoms: _123  and  _125
REMARK   53  A    between atoms: _125  and  _126
REMARK   54  A    between atoms: _128  and  _130
REMARK   55  A    between atoms: _130  and  _131
REMARK   56  A    between atoms: _134  and  _136
REMARK   57  A    between atoms: _136  and  _137
REMARK   58  A    between atoms: _140  and  _142
REMARK   59  A    between atoms: _142  and  _143
REMARK   60  A    between atoms: _142  and  _145
REMARK   61  A    between atoms: _145  and  _146
REMARK   62  A    between atoms: _151  and  _153
REMARK   63  A    between atoms: _153  and  _154
REMARK   64  A    between atoms: _153  and  _156
REMARK   65  A    between atoms: _156  and  _157
REMARK   66  A    between atoms: _158  and  _160
REMARK   67  A    between atoms: _160  and  _161
REMARK   68  A    between atoms: _160  and  _163
REMARK   69  A    between atoms: _163  and  _164
REMARK   70  A    between atoms: _170  and  _172
REMARK   71  A    between atoms: _172  and  _173
REMARK   72  A    between atoms: _172  and  _175
REMARK   73  A    between atoms: _175  and  _176
REMARK   74  A    between atoms: _181  and  _182
REMARK   75  A    between atoms: _184  and  _186
REMARK   76  A    between atoms: _186  and  _187
REMARK   77  A    between atoms: _186  and  _189
REMARK   78  A    between atoms: _192  and  _194
REMARK   79  A    between atoms: _194  and  _195
REMARK   80  A    between atoms: _194  and  _197
REMARK   81  A    between atoms: _197  and  _198
REMARK   82  A    between atoms: _198  and  _199
REMARK   83  A    between atoms: _204  and  _206
REMARK   84  A    between atoms: _206  and  _207
REMARK   85  A    between atoms: _210  and  _212
REMARK   86  A    between atoms: _212  and  _213
REMARK   87  A    between atoms: _212  and  _215
REMARK   88  A    between atoms: _215  and  _216
REMARK   89  A    between atoms: _219  and  _221
REMARK   90  A    between atoms: _221  and  _222
REMARK   91  A    between atoms: _221  and  _224
REMARK   92  A    between atoms: _227  and  _229
REMARK   93  A    between atoms: _229  and  _230
REMARK   94  A    between atoms: _229  and  _232
REMARK   95  A    between atoms: _232  and  _233
REMARK   96  A    between atoms: _243  and  _245
REMARK   97  A    between atoms: _245  and  _246
REMARK   98  A    between atoms: _248  and  _250
REMARK   99  A    between atoms: _250  and  _251
REMARK  100  A    between atoms: _250  and  _253
REMARK  101  A    between atoms: _253  and  _254
REMARK  102  A    between atoms: _259  and  _260
REMARK  103  A    between atoms: _262  and  _264
REMARK  104  A    between atoms: _264  and  _265
REMARK  105  A    between atoms: _264  and  _267
REMARK  106  A    between atoms: _267  and  _268
REMARK  107  A    between atoms: _271  and  _273
REMARK  108  A    between atoms: _273  and  _274
REMARK  109  A    between atoms: _273  and  _276
REMARK  110  A    between atoms: _276  and  _277
REMARK  111  A    between atoms: _280  and  _282
REMARK  112  A    between atoms: _282  and  _283
REMARK  113  A    between atoms: _282  and  _285
REMARK  114  A    between atoms: _285  and  _286
REMARK  115  A    between atoms: _286  and  _287
REMARK  116  A    between atoms: _287  and  _288
REMARK  117  A    between atoms: _288  and  _289
REMARK  118  A    between atoms: _293  and  _295
REMARK  119  A    between atoms: _295  and  _296
REMARK  120  A    between atoms: _295  and  _298
REMARK  121  A    between atoms: _298  and  _299
REMARK  122  A    between atoms: _302  and  _304
REMARK  123  A    between atoms: _304  and  _305
REMARK  124  A    between atoms: _304  and  _307
REMARK  125  A    between atoms: _307  and  _308
REMARK  126  A    between atoms: _308  and  _309
REMARK  127  A    between atoms: _314  and  _316
REMARK  128  A    between atoms: _316  and  _317
REMARK  129  A    between atoms: _316  and  _319
REMARK  130  A    between atoms: _319  and  _320
REMARK  131  A    between atoms: _325  and  _326
REMARK  132  A    between atoms: _328  and  _330
REMARK  133  A    between atoms: _330  and  _331
REMARK  134  A    between atoms: _334  and  _336
REMARK  135  A    between atoms: _336  and  _337
REMARK  136  A    between atoms: _336  and  _339
REMARK  137  A    between atoms: _339  and  _340
REMARK  138  A    between atoms: _340  and  _341
REMARK  139  A    between atoms: _341  and  _342
REMARK  140  A    between atoms: _342  and  _343
REMARK  141  A    between atoms: _347  and  _349
REMARK  142  A    between atoms: _349  and  _350
REMARK  143  A    between atoms: _349  and  _352
REMARK  144  A    between atoms: _352  and  _353
REMARK  145  A    between atoms: _356  and  _358
REMARK  146  A    between atoms: _358  and  _359
REMARK  147  A    between atoms: _362  and  _364
REMARK  148  A    between atoms: _364  and  _365
REMARK  149  A    between atoms: _364  and  _367
REMARK  150  A    between atoms: _367  and  _368
REMARK  151  A    between atoms: _368  and  _482
REMARK  152  A    between atoms: _369  and  _371
REMARK  153  A    between atoms: _371  and  _372
REMARK  154  A    between atoms: _371  and  _374
REMARK  155  A    between atoms: _374  and  _375
REMARK  156  A    between atoms: _375  and  _376
REMARK  157  A    between atoms: _376  and  _377
REMARK  158  A    between atoms: _377  and  _378
REMARK  159  A    between atoms: _382  and  _384
REMARK  160  A    between atoms: _384  and  _385
REMARK  161  A    between atoms: _387  and  _389
REMARK  162  A    between atoms: _389  and  _390
REMARK  163  A    between atoms: _389  and  _392
REMARK  164  A    between atoms: _392  and  _393
REMARK  165  A    between atoms: _396  and  _398
REMARK  166  A    between atoms: _398  and  _399
REMARK  167  A    between atoms: _398  and  _401
REMARK  168  A    between atoms: _401  and  _402
REMARK  169  A    between atoms: _404  and  _406
REMARK  170  A    between atoms: _406  and  _407
REMARK  171  A    between atoms: _409  and  _411
REMARK  172  A    between atoms: _411  and  _412
REMARK  173  A    between atoms: _414  and  _416
REMARK  174  A    between atoms: _416  and  _417
REMARK  175  A    between atoms: _416  and  _419
REMARK  176  A    between atoms: _419  and  _420
REMARK  177  A    between atoms: _423  and  _425
REMARK  178  A    between atoms: _425  and  _426
REMARK  179  A    between atoms: _425  and  _428
REMARK  180  A    between atoms: _428  and  _429
REMARK  181  A    between atoms: _432  and  _434
REMARK  182  A    between atoms: _434  and  _435
REMARK  183  A    between atoms: _434  and  _437
REMARK  184  A    between atoms: _437  and  _438
REMARK  185  A    between atoms: _440  and  _442
REMARK  186  A    between atoms: _442  and  _443
REMARK  187  A    between atoms: _442  and  _445
REMARK  188  A    between atoms: _445  and  _446
REMARK  189  A    between atoms: _456  and  _458
REMARK  190  A    between atoms: _458  and  _459
REMARK  191  A    between atoms: _461  and  _463
REMARK  192  A    between atoms: _463  and  _464
REMARK  193  A    between atoms: _463  and  _466
REMARK  194  A    between atoms: _466  and  _467
REMARK  195  A    between atoms: _467  and  _468
REMARK  196  A    between atoms: _471  and  _473
REMARK  197  A    between atoms: _473  and  _474
REMARK  198  A    between atoms: _476  and  _478
REMARK  199  A    between atoms: _478  and  _479
REMARK  200  A    between atoms: _478  and  _481
REMARK  201  A    between atoms: _481  and  _482
REMARK  202  A    between atoms: _483  and  _485
REMARK  203  A    between atoms: _485  and  _486
REMARK  204  A    between atoms: _489  and  _491
REMARK  205  A    between atoms: _491  and  _492
REMARK  206  A    between atoms: _491  and  _494
REMARK  207  A    between atoms: _494  and  _495
REMARK  208  A    between atoms: _495  and  _496
REMARK  209  A    between atoms: _501  and  _503
REMARK  210  A    between atoms: _503  and  _504
REMARK  211  A    between atoms: _503  and  _506
REMARK  212  A    between atoms: _506  and  _507
REMARK  213  A    between atoms: _507  and  _508
REMARK  214  A    between atoms: _508  and  _509
REMARK  215  A    between atoms: _519  and  _520
REMARK  216  A    between atoms: _525  and  _527
REMARK  217  A    between atoms: _527  and  _528
REMARK  218  A    between atoms: _530  and  _532
REMARK  219  A    between atoms: _532  and  _533
REMARK  220  A    between atoms: _532  and  _535
REMARK  221  A    between atoms: _538  and  _540
REMARK  222  A    between atoms: _540  and  _541
REMARK  223  A    between atoms: _540  and  _543
REMARK  224  A    between atoms: _543  and  _544
REMARK  225  A    between atoms: _549  and  _550
REMARK                            x       y       z     vdW  Elec       q    Type
REMARK                         _______ _______ _______ _____ _____    ______ ____
ROOT
ATOM      1  O   HOH     1      45.866 -25.148  29.393  0.00  0.00    +0.000 OA
ENDROOT
TORSDOF 0
