REMARK  Name = ../refined-set-2016/1fzk/1fzk_pocket.pdb
REMARK  322 active torsions:
REMARK  status: ('A' for Active; 'I' for Inactive)
REMARK    1  A    between atoms: _1  and  _3
REMARK    2  A    between atoms: _3  and  _4
REMARK    3  A    between atoms: _3  and  _6
REMARK    4  A    between atoms: _6  and  _7
REMARK    5  A    between atoms: _10  and  _12
REMARK    6  A    between atoms: _12  and  _13
REMARK    7  A    between atoms: _12  and  _15
REMARK    8  A    between atoms: _15  and  _16
REMARK    9  A    between atoms: _16  and  _17
REMARK   10  A    between atoms: _17  and  _18
REMARK   11  A    between atoms: _27  and  _29
REMARK   12  A    between atoms: _29  and  _30
REMARK   13  A    between atoms: _29  and  _32
REMARK   14  A    between atoms: _32  and  _33
REMARK   15  A    between atoms: _38  and  _39
REMARK   16  A    between atoms: _41  and  _43
REMARK   17  A    between atoms: _43  and  _44
REMARK   18  A    between atoms: _43  and  _46
REMARK   19  A    between atoms: _46  and  _47
REMARK   20  A    between atoms: _53  and  _55
REMARK   21  A    between atoms: _55  and  _56
REMARK   22  A    between atoms: _55  and  _58
REMARK   23  A    between atoms: _61  and  _63
REMARK   24  A    between atoms: _63  and  _64
REMARK   25  A    between atoms: _63  and  _66
REMARK   26  A    between atoms: _66  and  _67
REMARK   27  A    between atoms: _70  and  _72
REMARK   28  A    between atoms: _72  and  _73
REMARK   29  A    between atoms: _72  and  _75
REMARK   30  A    between atoms: _75  and  _76
REMARK   31  A    between atoms: _81  and  _82
REMARK   32  A    between atoms: _84  and  _86
REMARK   33  A    between atoms: _86  and  _87
REMARK   34  A    between atoms: _86  and  _89
REMARK   35  A    between atoms: _89  and  _90
REMARK   36  A    between atoms: _90  and  _91
REMARK   37  A    between atoms: _93  and  _95
REMARK   38  A    between atoms: _95  and  _96
REMARK   39  A    between atoms: _95  and  _98
REMARK   40  A    between atoms: _98  and  _99
REMARK   41  A    between atoms: _99  and  _100
REMARK   42  A    between atoms: _103  and  _105
REMARK   43  A    between atoms: _105  and  _106
REMARK   44  A    between atoms: _105  and  _108
REMARK   45  A    between atoms: _111  and  _113
REMARK   46  A    between atoms: _113  and  _114
REMARK   47  A    between atoms: _116  and  _118
REMARK   48  A    between atoms: _118  and  _119
REMARK   49  A    between atoms: _118  and  _121
REMARK   50  A    between atoms: _124  and  _126
REMARK   51  A    between atoms: _126  and  _127
REMARK   52  A    between atoms: _126  and  _129
REMARK   53  A    between atoms: _129  and  _130
REMARK   54  A    between atoms: _136  and  _138
REMARK   55  A    between atoms: _138  and  _139
REMARK   56  A    between atoms: _138  and  _141
REMARK   57  A    between atoms: _144  and  _146
REMARK   58  A    between atoms: _146  and  _147
REMARK   59  A    between atoms: _146  and  _149
REMARK   60  A    between atoms: _149  and  _150
REMARK   61  A    between atoms: _155  and  _156
REMARK   62  A    between atoms: _158  and  _160
REMARK   63  A    between atoms: _160  and  _161
REMARK   64  A    between atoms: _160  and  _163
REMARK   65  A    between atoms: _163  and  _164
REMARK   66  A    between atoms: _164  and  _165
REMARK   67  A    between atoms: _167  and  _169
REMARK   68  A    between atoms: _169  and  _170
REMARK   69  A    between atoms: _169  and  _172
REMARK   70  A    between atoms: _172  and  _173
REMARK   71  A    between atoms: _173  and  _174
REMARK   72  A    between atoms: _177  and  _179
REMARK   73  A    between atoms: _179  and  _180
REMARK   74  A    between atoms: _179  and  _182
REMARK   75  A    between atoms: _182  and  _183
REMARK   76  A    between atoms: _183  and  _184
REMARK   77  A    between atoms: _187  and  _189
REMARK   78  A    between atoms: _189  and  _190
REMARK   79  A    between atoms: _189  and  _192
REMARK   80  A    between atoms: _192  and  _193
REMARK   81  A    between atoms: _198  and  _199
REMARK   82  A    between atoms: _201  and  _203
REMARK   83  A    between atoms: _203  and  _204
REMARK   84  A    between atoms: _203  and  _206
REMARK   85  A    between atoms: _206  and  _207
REMARK   86  A    between atoms: _207  and  _208
REMARK   87  A    between atoms: _208  and  _209
REMARK   88  A    between atoms: _218  and  _220
REMARK   89  A    between atoms: _220  and  _221
REMARK   90  A    between atoms: _220  and  _223
REMARK   91  A    between atoms: _223  and  _224
REMARK   92  A    between atoms: _224  and  _225
REMARK   93  A    between atoms: _228  and  _230
REMARK   94  A    between atoms: _230  and  _231
REMARK   95  A    between atoms: _230  and  _233
REMARK   96  A    between atoms: _233  and  _234
REMARK   97  A    between atoms: _234  and  _235
REMARK   98  A    between atoms: _240  and  _242
REMARK   99  A    between atoms: _242  and  _243
REMARK  100  A    between atoms: _242  and  _245
REMARK  101  A    between atoms: _245  and  _246
REMARK  102  A    between atoms: _246  and  _247
REMARK  103  A    between atoms: _247  and  _248
REMARK  104  A    between atoms: _248  and  _249
REMARK  105  A    between atoms: _253  and  _255
REMARK  106  A    between atoms: _255  and  _256
REMARK  107  A    between atoms: _259  and  _261
REMARK  108  A    between atoms: _261  and  _262
REMARK  109  A    between atoms: _264  and  _266
REMARK  110  A    between atoms: _266  and  _267
REMARK  111  A    between atoms: _266  and  _269
REMARK  112  A    between atoms: _269  and  _270
REMARK  113  A    between atoms: _275  and  _277
REMARK  114  A    between atoms: _277  and  _278
REMARK  115  A    between atoms: _277  and  _280
REMARK  116  A    between atoms: _280  and  _281
REMARK  117  A    between atoms: _281  and  _282
REMARK  118  A    between atoms: _285  and  _287
REMARK  119  A    between atoms: _287  and  _288
REMARK  120  A    between atoms: _287  and  _290
REMARK  121  A    between atoms: _290  and  _291
REMARK  122  A    between atoms: _291  and  _292
REMARK  123  A    between atoms: _297  and  _299
REMARK  124  A    between atoms: _299  and  _300
REMARK  125  A    between atoms: _299  and  _302
REMARK  126  A    between atoms: _302  and  _303
REMARK  127  A    between atoms: _305  and  _307
REMARK  128  A    between atoms: _307  and  _308
REMARK  129  A    between atoms: _307  and  _310
REMARK  130  A    between atoms: _310  and  _311
REMARK  131  A    between atoms: _317  and  _319
REMARK  132  A    between atoms: _319  and  _320
REMARK  133  A    between atoms: _319  and  _322
REMARK  134  A    between atoms: _325  and  _327
REMARK  135  A    between atoms: _327  and  _328
REMARK  136  A    between atoms: _327  and  _330
REMARK  137  A    between atoms: _330  and  _331
REMARK  138  A    between atoms: _334  and  _336
REMARK  139  A    between atoms: _336  and  _337
REMARK  140  A    between atoms: _336  and  _339
REMARK  141  A    between atoms: _339  and  _340
REMARK  142  A    between atoms: _343  and  _345
REMARK  143  A    between atoms: _345  and  _346
REMARK  144  A    between atoms: _345  and  _348
REMARK  145  A    between atoms: _348  and  _349
REMARK  146  A    between atoms: _352  and  _354
REMARK  147  A    between atoms: _354  and  _355
REMARK  148  A    between atoms: _354  and  _357
REMARK  149  A    between atoms: _357  and  _358
REMARK  150  A    between atoms: _361  and  _363
REMARK  151  A    between atoms: _363  and  _364
REMARK  152  A    between atoms: _363  and  _366
REMARK  153  A    between atoms: _366  and  _367
REMARK  154  A    between atoms: _372  and  _373
REMARK  155  A    between atoms: _375  and  _377
REMARK  156  A    between atoms: _377  and  _378
REMARK  157  A    between atoms: _377  and  _380
REMARK  158  A    between atoms: _380  and  _381
REMARK  159  A    between atoms: _386  and  _387
REMARK  160  A    between atoms: _389  and  _391
REMARK  161  A    between atoms: _391  and  _392
REMARK  162  A    between atoms: _391  and  _394
REMARK  163  A    between atoms: _394  and  _395
REMARK  164  A    between atoms: _398  and  _400
REMARK  165  A    between atoms: _400  and  _401
REMARK  166  A    between atoms: _400  and  _403
REMARK  167  A    between atoms: _403  and  _404
REMARK  168  A    between atoms: _404  and  _405
REMARK  169  A    between atoms: _410  and  _412
REMARK  170  A    between atoms: _412  and  _413
REMARK  171  A    between atoms: _412  and  _415
REMARK  172  A    between atoms: _418  and  _420
REMARK  173  A    between atoms: _420  and  _421
REMARK  174  A    between atoms: _420  and  _423
REMARK  175  A    between atoms: _423  and  _424
REMARK  176  A    between atoms: _427  and  _429
REMARK  177  A    between atoms: _429  and  _430
REMARK  178  A    between atoms: _429  and  _432
REMARK  179  A    between atoms: _432  and  _433
REMARK  180  A    between atoms: _435  and  _437
REMARK  181  A    between atoms: _437  and  _438
REMARK  182  A    between atoms: _440  and  _442
REMARK  183  A    between atoms: _442  and  _443
REMARK  184  A    between atoms: _442  and  _445
REMARK  185  A    between atoms: _445  and  _446
REMARK  186  A    between atoms: _446  and  _744
REMARK  187  A    between atoms: _447  and  _449
REMARK  188  A    between atoms: _449  and  _450
REMARK  189  A    between atoms: _449  and  _452
REMARK  190  A    between atoms: _452  and  _453
REMARK  191  A    between atoms: _458  and  _459
REMARK  192  A    between atoms: _461  and  _463
REMARK  193  A    between atoms: _463  and  _464
REMARK  194  A    between atoms: _463  and  _466
REMARK  195  A    between atoms: _466  and  _467
REMARK  196  A    between atoms: _467  and  _468
REMARK  197  A    between atoms: _473  and  _475
REMARK  198  A    between atoms: _475  and  _476
REMARK  199  A    between atoms: _475  and  _478
REMARK  200  A    between atoms: _478  and  _479
REMARK  201  A    between atoms: _479  and  _480
REMARK  202  A    between atoms: _485  and  _487
REMARK  203  A    between atoms: _487  and  _488
REMARK  204  A    between atoms: _487  and  _490
REMARK  205  A    between atoms: _490  and  _491
REMARK  206  A    between atoms: _496  and  _497
REMARK  207  A    between atoms: _499  and  _501
REMARK  208  A    between atoms: _501  and  _502
REMARK  209  A    between atoms: _505  and  _507
REMARK  210  A    between atoms: _507  and  _508
REMARK  211  A    between atoms: _507  and  _510
REMARK  212  A    between atoms: _510  and  _511
REMARK  213  A    between atoms: _516  and  _517
REMARK  214  A    between atoms: _519  and  _521
REMARK  215  A    between atoms: _521  and  _522
REMARK  216  A    between atoms: _521  and  _524
REMARK  217  A    between atoms: _524  and  _525
REMARK  218  A    between atoms: _530  and  _531
REMARK  219  A    between atoms: _533  and  _535
REMARK  220  A    between atoms: _535  and  _536
REMARK  221  A    between atoms: _535  and  _538
REMARK  222  A    between atoms: _538  and  _539
REMARK  223  A    between atoms: _542  and  _544
REMARK  224  A    between atoms: _544  and  _545
REMARK  225  A    between atoms: _544  and  _547
REMARK  226  A    between atoms: _547  and  _548
REMARK  227  A    between atoms: _558  and  _560
REMARK  228  A    between atoms: _560  and  _561
REMARK  229  A    between atoms: _564  and  _566
REMARK  230  A    between atoms: _566  and  _567
REMARK  231  A    between atoms: _570  and  _572
REMARK  232  A    between atoms: _572  and  _573
REMARK  233  A    between atoms: _572  and  _575
REMARK  234  A    between atoms: _575  and  _576
REMARK  235  A    between atoms: _579  and  _581
REMARK  236  A    between atoms: _581  and  _582
REMARK  237  A    between atoms: _581  and  _584
REMARK  238  A    between atoms: _584  and  _585
REMARK  239  A    between atoms: _588  and  _590
REMARK  240  A    between atoms: _590  and  _591
REMARK  241  A    between atoms: _590  and  _593
REMARK  242  A    between atoms: _593  and  _594
REMARK  243  A    between atoms: _597  and  _599
REMARK  244  A    between atoms: _599  and  _600
REMARK  245  A    between atoms: _599  and  _602
REMARK  246  A    between atoms: _602  and  _603
REMARK  247  A    between atoms: _603  and  _604
REMARK  248  A    between atoms: _604  and  _605
REMARK  249  A    between atoms: _605  and  _606
REMARK  250  A    between atoms: _610  and  _612
REMARK  251  A    between atoms: _612  and  _613
REMARK  252  A    between atoms: _612  and  _615
REMARK  253  A    between atoms: _615  and  _616
REMARK  254  A    between atoms: _621  and  _623
REMARK  255  A    between atoms: _623  and  _624
REMARK  256  A    between atoms: _623  and  _626
REMARK  257  A    between atoms: _626  and  _627
REMARK  258  A    between atoms: _627  and  _628
REMARK  259  A    between atoms: _628  and  _629
REMARK  260  A    between atoms: _629  and  _630
REMARK  261  A    between atoms: _634  and  _636
REMARK  262  A    between atoms: _636  and  _637
REMARK  263  A    between atoms: _636  and  _639
REMARK  264  A    between atoms: _639  and  _640
REMARK  265  A    between atoms: _650  and  _652
REMARK  266  A    between atoms: _652  and  _653
REMARK  267  A    between atoms: _656  and  _658
REMARK  268  A    between atoms: _658  and  _659
REMARK  269  A    between atoms: _661  and  _663
REMARK  270  A    between atoms: _663  and  _664
REMARK  271  A    between atoms: _667  and  _669
REMARK  272  A    between atoms: _669  and  _670
REMARK  273  A    between atoms: _673  and  _675
REMARK  274  A    between atoms: _675  and  _676
REMARK  275  A    between atoms: _675  and  _678
REMARK  276  A    between atoms: _678  and  _679
REMARK  277  A    between atoms: _684  and  _685
REMARK  278  A    between atoms: _687  and  _689
REMARK  279  A    between atoms: _689  and  _690
REMARK  280  A    between atoms: _689  and  _692
REMARK  281  A    between atoms: _692  and  _693
REMARK  282  A    between atoms: _698  and  _699
REMARK  283  A    between atoms: _701  and  _703
REMARK  284  A    between atoms: _703  and  _704
REMARK  285  A    between atoms: _703  and  _706
REMARK  286  A    between atoms: _706  and  _707
REMARK  287  A    between atoms: _712  and  _713
REMARK  288  A    between atoms: _715  and  _717
REMARK  289  A    between atoms: _717  and  _718
REMARK  290  A    between atoms: _717  and  _720
REMARK  291  A    between atoms: _720  and  _721
REMARK  292  A    between atoms: _724  and  _726
REMARK  293  A    between atoms: _726  and  _727
REMARK  294  A    between atoms: _729  and  _731
REMARK  295  A    between atoms: _731  and  _732
REMARK  296  A    between atoms: _731  and  _734
REMARK  297  A    between atoms: _734  and  _735
REMARK  298  A    between atoms: _738  and  _740
REMARK  299  A    between atoms: _740  and  _741
REMARK  300  A    between atoms: _740  and  _743
REMARK  301  A    between atoms: _743  and  _744
REMARK  302  A    between atoms: _745  and  _747
REMARK  303  A    between atoms: _747  and  _748
REMARK  304  A    between atoms: _747  and  _750
REMARK  305  A    between atoms: _753  and  _755
REMARK  306  A    between atoms: _755  and  _756
REMARK  307  A    between atoms: _755  and  _758
REMARK  308  A    between atoms: _758  and  _759
REMARK  309  A    between atoms: _759  and  _760
REMARK  310  A    between atoms: _763  and  _765
REMARK  311  A    between atoms: _765  and  _766
REMARK  312  A    between atoms: _765  and  _768
REMARK  313  A    between atoms: _768  and  _769
REMARK  314  A    between atoms: _779  and  _781
REMARK  315  A    between atoms: _781  and  _782
REMARK  316  A    between atoms: _781  and  _784
REMARK  317  A    between atoms: _784  and  _785
REMARK  318  A    between atoms: _788  and  _790
REMARK  319  A    between atoms: _790  and  _791
REMARK  320  A    between atoms: _790  and  _793
REMARK  321  A    between atoms: _793  and  _794
REMARK  322  A    between atoms: _799  and  _800
REMARK                            x       y       z     vdW  Elec       q    Type
REMARK                         _______ _______ _______ _____ _____    ______ ____
ROOT
ATOM      1  CA  TYR A   3      46.937  50.081  -0.342  0.00  0.00    +0.153 C 
ENDROOT
BRANCH   1   4
ATOM      2  C   ARG A   2      49.208  49.507   0.341  0.00  0.00    +0.241 C 
ATOM      3  O   ARG A   2      48.859  49.221   1.489  0.00  0.00    -0.273 OA
ATOM      4  N   TYR A   3      48.363  49.939  -0.593  0.00  0.00    -0.297 N 
ATOM      5  H   TYR A   3      48.735  50.183  -1.533  0.00  0.00    +0.150 HD
BRANCH   2   6
ATOM      6  CA  ARG A   2      50.656  49.352  -0.096  0.00  0.00    +0.149 C 
BRANCH   6   8
ATOM      7  C   LEU A   1      52.679  50.444   0.694  0.00  0.00    +0.238 C 
ATOM      8  N   ARG A   2      51.628  49.671   0.949  0.00  0.00    -0.297 N 
ATOM      9  H   ARG A   2      51.495  49.287   1.906  0.00  0.00    +0.150 HD
ATOM     10  O   LEU A   1      52.879  50.948  -0.415  0.00  0.00    -0.274 OA
BRANCH   7  11
ATOM     11  CA  LEU A   1      53.661  50.680   1.840  0.00  0.00    +0.145 C 
BRANCH  11  12
ATOM     12  N   LEU A   1      54.924  50.157   1.328  0.00  0.00    -0.238 NA
ATOM     13  H   LEU A   1      55.274  50.522   0.419  0.00  0.00    +0.142 HD
ENDBRANCH  11  12
BRANCH  11  14
ATOM     14  CB  LEU A   1      53.765  52.183   2.141  0.00  0.00    +0.026 C 
BRANCH  14  15
ATOM     15  CG  LEU A   1      52.447  52.856   2.546  0.00  0.00    +0.002 C 
ATOM     16  CD2 LEU A   1      51.866  52.210   3.800  0.00  0.00    +0.000 C 
ATOM     17  CD1 LEU A   1      52.714  54.346   2.792  0.00  0.00    +0.000 C 
ENDBRANCH  14  15
ENDBRANCH  11  14
ENDBRANCH   7  11
ENDBRANCH   6   8
BRANCH   6  18
ATOM     18  CB  ARG A   2      50.846  47.902  -0.575  0.00  0.00    +0.033 C 
BRANCH  18  19
ATOM     19  CG  ARG A   2      52.187  47.583  -1.234  0.00  0.00    +0.045 C 
BRANCH  19  20
ATOM     20  CD  ARG A   2      52.293  46.075  -1.503  0.00  0.00    +0.174 C 
BRANCH  20  21
ATOM     21  NE  ARG A   2      52.201  45.309  -0.263  0.00  0.00    -0.265 N 
ATOM     22  HE  ARG A   2      52.211  45.838   0.632  0.00  0.00    +0.259 HD
ATOM     23  CZ  ARG A   2      52.105  43.981  -0.195  0.00  0.00    +0.342 C 
ATOM     24  NH2 ARG A   2      52.022  43.383   0.990  0.00  0.00    -0.292 N 
ATOM     25 HH21 ARG A   2      52.032  43.951   1.861  0.00  0.00    +0.255 HD
ATOM     26 HH22 ARG A   2      51.947  42.347   1.046  0.00  0.00    +0.255 HD
ATOM     27  NH1 ARG A   2      52.086  43.250  -1.307  0.00  0.00    -0.292 N 
ATOM     28 HH11 ARG A   2      52.011  42.214  -1.247  0.00  0.00    +0.255 HD
ATOM     29 HH12 ARG A   2      52.146  43.714  -2.236  0.00  0.00    +0.255 HD
ENDBRANCH  20  21
ENDBRANCH  19  20
ENDBRANCH  18  19
ENDBRANCH   6  18
ENDBRANCH   2   6
ENDBRANCH   1   4
BRANCH   1  30
ATOM     30  C   TYR A   3      46.150  49.304  -1.390  0.00  0.00    +0.241 C 
ATOM     31  N   PHE A   4      45.349  48.348  -0.924  0.00  0.00    -0.297 N 
ATOM     32  H   PHE A   4      45.324  48.173   0.101  0.00  0.00    +0.150 HD
ATOM     33  O   TYR A   3      46.283  49.558  -2.595  0.00  0.00    -0.273 OA
BRANCH  31  34
ATOM     34  CA  PHE A   4      44.503  47.535  -1.795  0.00  0.00    +0.153 C 
BRANCH  34  35
ATOM     35  C   PHE A   4      43.080  48.077  -1.694  0.00  0.00    +0.241 C 
ATOM     36  O   PHE A   4      42.498  48.091  -0.607  0.00  0.00    -0.273 OA
ATOM     37  N   VAL A   5      42.526  48.521  -2.822  0.00  0.00    -0.297 N 
ATOM     38  H   VAL A   5      43.073  48.468  -3.705  0.00  0.00    +0.150 HD
BRANCH  37  39
ATOM     39  CA  VAL A   5      41.174  49.080  -2.860  0.00  0.00    +0.149 C 
BRANCH  39  40
ATOM     40  C   VAL A   5      40.245  48.242  -3.730  0.00  0.00    +0.241 C 
ATOM     41  N   THR A   6      39.022  48.021  -3.247  0.00  0.00    -0.296 N 
ATOM     42  H   THR A   6      38.772  48.413  -2.317  0.00  0.00    +0.150 HD
ATOM     43  O   VAL A   5      40.641  47.801  -4.811  0.00  0.00    -0.273 OA
BRANCH  41  44
ATOM     44  CA  THR A   6      38.020  47.247  -3.980  0.00  0.00    +0.164 C 
BRANCH  44  45
ATOM     45  C   THR A   6      36.633  47.892  -3.916  0.00  0.00    +0.229 C 
ATOM     46  O   THR A   6      36.179  48.303  -2.848  0.00  0.00    -0.286 OA
ENDBRANCH  44  45
BRANCH  44  47
ATOM     47  CB  THR A   6      37.866  45.807  -3.420  0.00  0.00    +0.136 C 
ATOM     48  CG2 THR A   6      37.075  44.953  -4.409  0.00  0.00    +0.034 C 
BRANCH  47  49
ATOM     49  OG1 THR A   6      39.155  45.213  -3.213  0.00  0.00    -0.382 OA
ATOM     50  HG1 THR A   6      39.669  45.759  -2.566  0.00  0.00    +0.210 HD
ENDBRANCH  47  49
ENDBRANCH  44  47
ENDBRANCH  41  44
ENDBRANCH  39  40
BRANCH  39  51
ATOM     51  CB  VAL A   5      41.202  50.533  -3.410  0.00  0.00    +0.027 C 
ATOM     52  CG2 VAL A   5      41.970  51.413  -2.453  0.00  0.00    +0.002 C 
ATOM     53  CG1 VAL A   5      39.785  51.062  -3.618  0.00  0.00    +0.002 C 
ENDBRANCH  39  51
ENDBRANCH  37  39
ENDBRANCH  34  35
BRANCH  34  54
ATOM     54  CB  PHE A   4      44.500  46.061  -1.351  0.00  0.00    +0.055 C 
BRANCH  54  55
ATOM     55  CG  PHE A   4      45.821  45.370  -1.497  0.00  0.00    -0.020 A 
ATOM     56  CD2 PHE A   4      46.852  45.597  -0.584  0.00  0.00    -0.004 A 
ATOM     57  CE2 PHE A   4      48.078  44.941  -0.712  0.00  0.00    -0.000 A 
ATOM     58  CZ  PHE A   4      48.284  44.047  -1.766  0.00  0.00    -0.000 A 
ATOM     59  CE1 PHE A   4      47.260  43.817  -2.682  0.00  0.00    -0.000 A 
ATOM     60  CD1 PHE A   4      46.039  44.477  -2.546  0.00  0.00    -0.004 A 
ENDBRANCH  54  55
ENDBRANCH  34  54
ENDBRANCH  31  34
ENDBRANCH   1  30
BRANCH   1  61
ATOM     61  CB  TYR A   3      46.515  51.557  -0.371  0.00  0.00    +0.055 C 
BRANCH  61  62
ATOM     62  CG  TYR A   3      46.905  52.303   0.881  0.00  0.00    -0.020 A 
ATOM     63  CD2 TYR A   3      46.060  52.332   1.996  0.00  0.00    -0.001 A 
ATOM     64  CE2 TYR A   3      46.460  52.950   3.185  0.00  0.00    +0.036 A 
ATOM     65  CZ  TYR A   3      47.715  53.538   3.253  0.00  0.00    +0.134 A 
ATOM     66  CE1 TYR A   3      48.560  53.525   2.160  0.00  0.00    +0.036 A 
ATOM     67  CD1 TYR A   3      48.154  52.913   0.981  0.00  0.00    -0.001 A 
BRANCH  65  68
ATOM     68  OH  TYR A   3      48.137  54.128   4.427  0.00  0.00    -0.506 OA
ATOM     69  HH  TYR A   3      47.422  54.054   5.108  0.00  0.00    +0.292 HD
ENDBRANCH  65  68
ENDBRANCH  61  62
ENDBRANCH   1  61
TORSDOF 26
REMARK  Name = ../refined-set-2016/1fzk/1fzk_pocket.pdb
REMARK  322 active torsions:
REMARK  status: ('A' for Active; 'I' for Inactive)
REMARK    1  A    between atoms: _1  and  _3
REMARK    2  A    between atoms: _3  and  _4
REMARK    3  A    between atoms: _3  and  _6
REMARK    4  A    between atoms: _6  and  _7
REMARK    5  A    between atoms: _10  and  _12
REMARK    6  A    between atoms: _12  and  _13
REMARK    7  A    between atoms: _12  and  _15
REMARK    8  A    between atoms: _15  and  _16
REMARK    9  A    between atoms: _16  and  _17
REMARK   10  A    between atoms: _17  and  _18
REMARK   11  A    between atoms: _27  and  _29
REMARK   12  A    between atoms: _29  and  _30
REMARK   13  A    between atoms: _29  and  _32
REMARK   14  A    between atoms: _32  and  _33
REMARK   15  A    between atoms: _38  and  _39
REMARK   16  A    between atoms: _41  and  _43
REMARK   17  A    between atoms: _43  and  _44
REMARK   18  A    between atoms: _43  and  _46
REMARK   19  A    between atoms: _46  and  _47
REMARK   20  A    between atoms: _53  and  _55
REMARK   21  A    between atoms: _55  and  _56
REMARK   22  A    between atoms: _55  and  _58
REMARK   23  A    between atoms: _61  and  _63
REMARK   24  A    between atoms: _63  and  _64
REMARK   25  A    between atoms: _63  and  _66
REMARK   26  A    between atoms: _66  and  _67
REMARK   27  A    between atoms: _70  and  _72
REMARK   28  A    between atoms: _72  and  _73
REMARK   29  A    between atoms: _72  and  _75
REMARK   30  A    between atoms: _75  and  _76
REMARK   31  A    between atoms: _81  and  _82
REMARK   32  A    between atoms: _84  and  _86
REMARK   33  A    between atoms: _86  and  _87
REMARK   34  A    between atoms: _86  and  _89
REMARK   35  A    between atoms: _89  and  _90
REMARK   36  A    between atoms: _90  and  _91
REMARK   37  A    between atoms: _93  and  _95
REMARK   38  A    between atoms: _95  and  _96
REMARK   39  A    between atoms: _95  and  _98
REMARK   40  A    between atoms: _98  and  _99
REMARK   41  A    between atoms: _99  and  _100
REMARK   42  A    between atoms: _103  and  _105
REMARK   43  A    between atoms: _105  and  _106
REMARK   44  A    between atoms: _105  and  _108
REMARK   45  A    between atoms: _111  and  _113
REMARK   46  A    between atoms: _113  and  _114
REMARK   47  A    between atoms: _116  and  _118
REMARK   48  A    between atoms: _118  and  _119
REMARK   49  A    between atoms: _118  and  _121
REMARK   50  A    between atoms: _124  and  _126
REMARK   51  A    between atoms: _126  and  _127
REMARK   52  A    between atoms: _126  and  _129
REMARK   53  A    between atoms: _129  and  _130
REMARK   54  A    between atoms: _136  and  _138
REMARK   55  A    between atoms: _138  and  _139
REMARK   56  A    between atoms: _138  and  _141
REMARK   57  A    between atoms: _144  and  _146
REMARK   58  A    between atoms: _146  and  _147
REMARK   59  A    between atoms: _146  and  _149
REMARK   60  A    between atoms: _149  and  _150
REMARK   61  A    between atoms: _155  and  _156
REMARK   62  A    between atoms: _158  and  _160
REMARK   63  A    between atoms: _160  and  _161
REMARK   64  A    between atoms: _160  and  _163
REMARK   65  A    between atoms: _163  and  _164
REMARK   66  A    between atoms: _164  and  _165
REMARK   67  A    between atoms: _167  and  _169
REMARK   68  A    between atoms: _169  and  _170
REMARK   69  A    between atoms: _169  and  _172
REMARK   70  A    between atoms: _172  and  _173
REMARK   71  A    between atoms: _173  and  _174
REMARK   72  A    between atoms: _177  and  _179
REMARK   73  A    between atoms: _179  and  _180
REMARK   74  A    between atoms: _179  and  _182
REMARK   75  A    between atoms: _182  and  _183
REMARK   76  A    between atoms: _183  and  _184
REMARK   77  A    between atoms: _187  and  _189
REMARK   78  A    between atoms: _189  and  _190
REMARK   79  A    between atoms: _189  and  _192
REMARK   80  A    between atoms: _192  and  _193
REMARK   81  A    between atoms: _198  and  _199
REMARK   82  A    between atoms: _201  and  _203
REMARK   83  A    between atoms: _203  and  _204
REMARK   84  A    between atoms: _203  and  _206
REMARK   85  A    between atoms: _206  and  _207
REMARK   86  A    between atoms: _207  and  _208
REMARK   87  A    between atoms: _208  and  _209
REMARK   88  A    between atoms: _218  and  _220
REMARK   89  A    between atoms: _220  and  _221
REMARK   90  A    between atoms: _220  and  _223
REMARK   91  A    between atoms: _223  and  _224
REMARK   92  A    between atoms: _224  and  _225
REMARK   93  A    between atoms: _228  and  _230
REMARK   94  A    between atoms: _230  and  _231
REMARK   95  A    between atoms: _230  and  _233
REMARK   96  A    between atoms: _233  and  _234
REMARK   97  A    between atoms: _234  and  _235
REMARK   98  A    between atoms: _240  and  _242
REMARK   99  A    between atoms: _242  and  _243
REMARK  100  A    between atoms: _242  and  _245
REMARK  101  A    between atoms: _245  and  _246
REMARK  102  A    between atoms: _246  and  _247
REMARK  103  A    between atoms: _247  and  _248
REMARK  104  A    between atoms: _248  and  _249
REMARK  105  A    between atoms: _253  and  _255
REMARK  106  A    between atoms: _255  and  _256
REMARK  107  A    between atoms: _259  and  _261
REMARK  108  A    between atoms: _261  and  _262
REMARK  109  A    between atoms: _264  and  _266
REMARK  110  A    between atoms: _266  and  _267
REMARK  111  A    between atoms: _266  and  _269
REMARK  112  A    between atoms: _269  and  _270
REMARK  113  A    between atoms: _275  and  _277
REMARK  114  A    between atoms: _277  and  _278
REMARK  115  A    between atoms: _277  and  _280
REMARK  116  A    between atoms: _280  and  _281
REMARK  117  A    between atoms: _281  and  _282
REMARK  118  A    between atoms: _285  and  _287
REMARK  119  A    between atoms: _287  and  _288
REMARK  120  A    between atoms: _287  and  _290
REMARK  121  A    between atoms: _290  and  _291
REMARK  122  A    between atoms: _291  and  _292
REMARK  123  A    between atoms: _297  and  _299
REMARK  124  A    between atoms: _299  and  _300
REMARK  125  A    between atoms: _299  and  _302
REMARK  126  A    between atoms: _302  and  _303
REMARK  127  A    between atoms: _305  and  _307
REMARK  128  A    between atoms: _307  and  _308
REMARK  129  A    between atoms: _307  and  _310
REMARK  130  A    between atoms: _310  and  _311
REMARK  131  A    between atoms: _317  and  _319
REMARK  132  A    between atoms: _319  and  _320
REMARK  133  A    between atoms: _319  and  _322
REMARK  134  A    between atoms: _325  and  _327
REMARK  135  A    between atoms: _327  and  _328
REMARK  136  A    between atoms: _327  and  _330
REMARK  137  A    between atoms: _330  and  _331
REMARK  138  A    between atoms: _334  and  _336
REMARK  139  A    between atoms: _336  and  _337
REMARK  140  A    between atoms: _336  and  _339
REMARK  141  A    between atoms: _339  and  _340
REMARK  142  A    between atoms: _343  and  _345
REMARK  143  A    between atoms: _345  and  _346
REMARK  144  A    between atoms: _345  and  _348
REMARK  145  A    between atoms: _348  and  _349
REMARK  146  A    between atoms: _352  and  _354
REMARK  147  A    between atoms: _354  and  _355
REMARK  148  A    between atoms: _354  and  _357
REMARK  149  A    between atoms: _357  and  _358
REMARK  150  A    between atoms: _361  and  _363
REMARK  151  A    between atoms: _363  and  _364
REMARK  152  A    between atoms: _363  and  _366
REMARK  153  A    between atoms: _366  and  _367
REMARK  154  A    between atoms: _372  and  _373
REMARK  155  A    between atoms: _375  and  _377
REMARK  156  A    between atoms: _377  and  _378
REMARK  157  A    between atoms: _377  and  _380
REMARK  158  A    between atoms: _380  and  _381
REMARK  159  A    between atoms: _386  and  _387
REMARK  160  A    between atoms: _389  and  _391
REMARK  161  A    between atoms: _391  and  _392
REMARK  162  A    between atoms: _391  and  _394
REMARK  163  A    between atoms: _394  and  _395
REMARK  164  A    between atoms: _398  and  _400
REMARK  165  A    between atoms: _400  and  _401
REMARK  166  A    between atoms: _400  and  _403
REMARK  167  A    between atoms: _403  and  _404
REMARK  168  A    between atoms: _404  and  _405
REMARK  169  A    between atoms: _410  and  _412
REMARK  170  A    between atoms: _412  and  _413
REMARK  171  A    between atoms: _412  and  _415
REMARK  172  A    between atoms: _418  and  _420
REMARK  173  A    between atoms: _420  and  _421
REMARK  174  A    between atoms: _420  and  _423
REMARK  175  A    between atoms: _423  and  _424
REMARK  176  A    between atoms: _427  and  _429
REMARK  177  A    between atoms: _429  and  _430
REMARK  178  A    between atoms: _429  and  _432
REMARK  179  A    between atoms: _432  and  _433
REMARK  180  A    between atoms: _435  and  _437
REMARK  181  A    between atoms: _437  and  _438
REMARK  182  A    between atoms: _440  and  _442
REMARK  183  A    between atoms: _442  and  _443
REMARK  184  A    between atoms: _442  and  _445
REMARK  185  A    between atoms: _445  and  _446
REMARK  186  A    between atoms: _446  and  _744
REMARK  187  A    between atoms: _447  and  _449
REMARK  188  A    between atoms: _449  and  _450
REMARK  189  A    between atoms: _449  and  _452
REMARK  190  A    between atoms: _452  and  _453
REMARK  191  A    between atoms: _458  and  _459
REMARK  192  A    between atoms: _461  and  _463
REMARK  193  A    between atoms: _463  and  _464
REMARK  194  A    between atoms: _463  and  _466
REMARK  195  A    between atoms: _466  and  _467
REMARK  196  A    between atoms: _467  and  _468
REMARK  197  A    between atoms: _473  and  _475
REMARK  198  A    between atoms: _475  and  _476
REMARK  199  A    between atoms: _475  and  _478
REMARK  200  A    between atoms: _478  and  _479
REMARK  201  A    between atoms: _479  and  _480
REMARK  202  A    between atoms: _485  and  _487
REMARK  203  A    between atoms: _487  and  _488
REMARK  204  A    between atoms: _487  and  _490
REMARK  205  A    between atoms: _490  and  _491
REMARK  206  A    between atoms: _496  and  _497
REMARK  207  A    between atoms: _499  and  _501
REMARK  208  A    between atoms: _501  and  _502
REMARK  209  A    between atoms: _505  and  _507
REMARK  210  A    between atoms: _507  and  _508
REMARK  211  A    between atoms: _507  and  _510
REMARK  212  A    between atoms: _510  and  _511
REMARK  213  A    between atoms: _516  and  _517
REMARK  214  A    between atoms: _519  and  _521
REMARK  215  A    between atoms: _521  and  _522
REMARK  216  A    between atoms: _521  and  _524
REMARK  217  A    between atoms: _524  and  _525
REMARK  218  A    between atoms: _530  and  _531
REMARK  219  A    between atoms: _533  and  _535
REMARK  220  A    between atoms: _535  and  _536
REMARK  221  A    between atoms: _535  and  _538
REMARK  222  A    between atoms: _538  and  _539
REMARK  223  A    between atoms: _542  and  _544
REMARK  224  A    between atoms: _544  and  _545
REMARK  225  A    between atoms: _544  and  _547
REMARK  226  A    between atoms: _547  and  _548
REMARK  227  A    between atoms: _558  and  _560
REMARK  228  A    between atoms: _560  and  _561
REMARK  229  A    between atoms: _564  and  _566
REMARK  230  A    between atoms: _566  and  _567
REMARK  231  A    between atoms: _570  and  _572
REMARK  232  A    between atoms: _572  and  _573
REMARK  233  A    between atoms: _572  and  _575
REMARK  234  A    between atoms: _575  and  _576
REMARK  235  A    between atoms: _579  and  _581
REMARK  236  A    between atoms: _581  and  _582
REMARK  237  A    between atoms: _581  and  _584
REMARK  238  A    between atoms: _584  and  _585
REMARK  239  A    between atoms: _588  and  _590
REMARK  240  A    between atoms: _590  and  _591
REMARK  241  A    between atoms: _590  and  _593
REMARK  242  A    between atoms: _593  and  _594
REMARK  243  A    between atoms: _597  and  _599
REMARK  244  A    between atoms: _599  and  _600
REMARK  245  A    between atoms: _599  and  _602
REMARK  246  A    between atoms: _602  and  _603
REMARK  247  A    between atoms: _603  and  _604
REMARK  248  A    between atoms: _604  and  _605
REMARK  249  A    between atoms: _605  and  _606
REMARK  250  A    between atoms: _610  and  _612
REMARK  251  A    between atoms: _612  and  _613
REMARK  252  A    between atoms: _612  and  _615
REMARK  253  A    between atoms: _615  and  _616
REMARK  254  A    between atoms: _621  and  _623
REMARK  255  A    between atoms: _623  and  _624
REMARK  256  A    between atoms: _623  and  _626
REMARK  257  A    between atoms: _626  and  _627
REMARK  258  A    between atoms: _627  and  _628
REMARK  259  A    between atoms: _628  and  _629
REMARK  260  A    between atoms: _629  and  _630
REMARK  261  A    between atoms: _634  and  _636
REMARK  262  A    between atoms: _636  and  _637
REMARK  263  A    between atoms: _636  and  _639
REMARK  264  A    between atoms: _639  and  _640
REMARK  265  A    between atoms: _650  and  _652
REMARK  266  A    between atoms: _652  and  _653
REMARK  267  A    between atoms: _656  and  _658
REMARK  268  A    between atoms: _658  and  _659
REMARK  269  A    between atoms: _661  and  _663
REMARK  270  A    between atoms: _663  and  _664
REMARK  271  A    between atoms: _667  and  _669
REMARK  272  A    between atoms: _669  and  _670
REMARK  273  A    between atoms: _673  and  _675
REMARK  274  A    between atoms: _675  and  _676
REMARK  275  A    between atoms: _675  and  _678
REMARK  276  A    between atoms: _678  and  _679
REMARK  277  A    between atoms: _684  and  _685
REMARK  278  A    between atoms: _687  and  _689
REMARK  279  A    between atoms: _689  and  _690
REMARK  280  A    between atoms: _689  and  _692
REMARK  281  A    between atoms: _692  and  _693
REMARK  282  A    between atoms: _698  and  _699
REMARK  283  A    between atoms: _701  and  _703
REMARK  284  A    between atoms: _703  and  _704
REMARK  285  A    between atoms: _703  and  _706
REMARK  286  A    between atoms: _706  and  _707
REMARK  287  A    between atoms: _712  and  _713
REMARK  288  A    between atoms: _715  and  _717
REMARK  289  A    between atoms: _717  and  _718
REMARK  290  A    between atoms: _717  and  _720
REMARK  291  A    between atoms: _720  and  _721
REMARK  292  A    between atoms: _724  and  _726
REMARK  293  A    between atoms: _726  and  _727
REMARK  294  A    between atoms: _729  and  _731
REMARK  295  A    between atoms: _731  and  _732
REMARK  296  A    between atoms: _731  and  _734
REMARK  297  A    between atoms: _734  and  _735
REMARK  298  A    between atoms: _738  and  _740
REMARK  299  A    between atoms: _740  and  _741
REMARK  300  A    between atoms: _740  and  _743
REMARK  301  A    between atoms: _743  and  _744
REMARK  302  A    between atoms: _745  and  _747
REMARK  303  A    between atoms: _747  and  _748
REMARK  304  A    between atoms: _747  and  _750
REMARK  305  A    between atoms: _753  and  _755
REMARK  306  A    between atoms: _755  and  _756
REMARK  307  A    between atoms: _755  and  _758
REMARK  308  A    between atoms: _758  and  _759
REMARK  309  A    between atoms: _759  and  _760
REMARK  310  A    between atoms: _763  and  _765
REMARK  311  A    between atoms: _765  and  _766
REMARK  312  A    between atoms: _765  and  _768
REMARK  313  A    between atoms: _768  and  _769
REMARK  314  A    between atoms: _779  and  _781
REMARK  315  A    between atoms: _781  and  _782
REMARK  316  A    between atoms: _781  and  _784
REMARK  317  A    between atoms: _784  and  _785
REMARK  318  A    between atoms: _788  and  _790
REMARK  319  A    between atoms: _790  and  _791
REMARK  320  A    between atoms: _790  and  _793
REMARK  321  A    between atoms: _793  and  _794
REMARK  322  A    between atoms: _799  and  _800
REMARK                            x       y       z     vdW  Elec       q    Type
REMARK                         _______ _______ _______ _____ _____    ______ ____
ROOT
ATOM      1  C   MET A   2      38.371  49.067   0.720  0.00  0.00    +0.241 C 
ATOM      2  N   GLU A   3      39.133  49.437   1.746  0.00  0.00    -0.297 N 
ATOM      3  H   GLU A   3      38.721  49.428   2.701  0.00  0.00    +0.150 HD
ATOM      4  O   MET A   2      38.751  49.093  -0.453  0.00  0.00    -0.273 OA
ENDROOT
BRANCH   2   5
ATOM      5  CA  GLU A   3      40.525  49.856   1.588  0.00  0.00    +0.149 C 
BRANCH   5   6
ATOM      6  C   GLU A   3      41.304  49.115   2.688  0.00  0.00    +0.241 C 
ATOM      7  O   GLU A   3      40.892  49.120   3.851  0.00  0.00    -0.273 OA
ATOM      8  N   VAL A   4      42.404  48.462   2.322  0.00  0.00    -0.297 N 
ATOM      9  H   VAL A   4      42.682  48.455   1.320  0.00  0.00    +0.150 HD
BRANCH   8  10
ATOM     10  CA  VAL A   4      43.232  47.753   3.300  0.00  0.00    +0.149 C 
BRANCH  10  11
ATOM     11  C   VAL A   4      44.690  48.142   3.058  0.00  0.00    +0.241 C 
ATOM     12  N   GLY A   5      45.346  48.630   4.109  0.00  0.00    -0.296 N 
ATOM     13  H   GLY A   5      44.862  48.716   5.025  0.00  0.00    +0.150 HD
ATOM     14  O   VAL A   4      45.206  48.023   1.940  0.00  0.00    -0.273 OA
BRANCH  12  15
ATOM     15  CA  GLY A   5      46.729  49.042   3.985  0.00  0.00    +0.163 C 
BRANCH  15  16
ATOM     16  C   GLY A   5      47.706  48.110   4.670  0.00  0.00    +0.229 C 
ATOM     17  O   GLY A   5      47.400  47.545   5.725  0.00  0.00    -0.286 OA
ENDBRANCH  15  16
ENDBRANCH  12  15
ENDBRANCH  10  11
BRANCH  10  18
ATOM     18  CB  VAL A   4      43.085  46.205   3.187  0.00  0.00    +0.027 C 
ATOM     19  CG2 VAL A   4      43.834  45.520   4.348  0.00  0.00    +0.002 C 
ATOM     20  CG1 VAL A   4      41.611  45.818   3.200  0.00  0.00    +0.002 C 
ENDBRANCH  10  18
ENDBRANCH   8  10
ENDBRANCH   5   6
BRANCH   5  21
ATOM     21  CB  GLU A   3      40.712  51.374   1.796  0.00  0.00    +0.041 C 
BRANCH  21  22
ATOM     22  CG  GLU A   3      40.085  52.263   0.723  0.00  0.00    +0.116 C 
BRANCH  22  23
ATOM     23  CD  GLU A   3      40.630  53.689   0.728  0.00  0.00    +0.365 C 
ATOM     24  OE2 GLU A   3      41.697  53.929   1.329  0.00  0.00    -0.246 OA
ATOM     25  OE1 GLU A   3      39.996  54.566   0.106  0.00  0.00    -0.246 OA
ENDBRANCH  22  23
ENDBRANCH  21  22
ENDBRANCH   5  21
ENDBRANCH   2   5
BRANCH   1  26
ATOM     26  CA  MET A   2      36.967  48.600   1.078  0.00  0.00    +0.149 C 
BRANCH  26  29
ATOM     27  C   TYR A   1      34.790  49.423   0.374  0.00  0.00    +0.239 C 
ATOM     28  O   TYR A   1      34.433  49.615   1.534  0.00  0.00    -0.274 OA
ATOM     29  N   MET A   2      35.987  48.943   0.054  0.00  0.00    -0.297 N 
ATOM     30  H   MET A   2      36.230  48.809  -0.948  0.00  0.00    +0.150 HD
BRANCH  27  31
ATOM     31  CA  TYR A   1      33.853  49.749  -0.783  0.00  0.00    +0.149 C 
BRANCH  31  32
ATOM     32  N   TYR A   1      32.542  49.163  -0.545  0.00  0.00    -0.238 NA
ATOM     33  H   TYR A   1      32.056  49.358   0.353  0.00  0.00    +0.142 HD
ENDBRANCH  31  32
BRANCH  31  34
ATOM     34  CB  TYR A   1      33.713  51.267  -0.916  0.00  0.00    +0.053 C 
BRANCH  34  35
ATOM     35  CG  TYR A   1      35.012  51.953  -1.229  0.00  0.00    -0.020 A 
ATOM     36  CD2 TYR A   1      35.703  52.659  -0.247  0.00  0.00    -0.001 A 
ATOM     37  CE2 TYR A   1      36.931  53.260  -0.524  0.00  0.00    +0.036 A 
ATOM     38  CZ  TYR A   1      37.471  53.150  -1.801  0.00  0.00    +0.134 A 
ATOM     39  CE1 TYR A   1      36.796  52.455  -2.792  0.00  0.00    +0.036 A 
ATOM     40  CD1 TYR A   1      35.577  51.864  -2.504  0.00  0.00    -0.001 A 
BRANCH  38  41
ATOM     41  OH  TYR A   1      38.694  53.708  -2.087  0.00  0.00    -0.506 OA
ATOM     42  HH  TYR A   1      39.384  53.305  -1.502  0.00  0.00    +0.292 HD
ENDBRANCH  38  41
ENDBRANCH  34  35
ENDBRANCH  31  34
ENDBRANCH  27  31
ENDBRANCH  26  29
BRANCH  26  43
ATOM     43  CB  MET A   2      37.012  47.083   1.293  0.00  0.00    +0.041 C 
BRANCH  43  44
ATOM     44  CG  MET A   2      35.747  46.465   1.855  0.00  0.00    +0.060 C 
BRANCH  44  45
ATOM     45  SD  MET A   2      35.973  44.687   2.144  0.00  0.00    -0.139 S 
ATOM     46  CE  MET A   2      36.778  44.704   3.735  0.00  0.00    +0.069 C 
ENDBRANCH  44  45
ENDBRANCH  43  44
ENDBRANCH  26  43
ENDBRANCH   1  26
TORSDOF 20
REMARK  Name = ../refined-set-2016/1fzk/1fzk_pocket.pdb
REMARK  322 active torsions:
REMARK  status: ('A' for Active; 'I' for Inactive)
REMARK    1  A    between atoms: _1  and  _3
REMARK    2  A    between atoms: _3  and  _4
REMARK    3  A    between atoms: _3  and  _6
REMARK    4  A    between atoms: _6  and  _7
REMARK    5  A    between atoms: _10  and  _12
REMARK    6  A    between atoms: _12  and  _13
REMARK    7  A    between atoms: _12  and  _15
REMARK    8  A    between atoms: _15  and  _16
REMARK    9  A    between atoms: _16  and  _17
REMARK   10  A    between atoms: _17  and  _18
REMARK   11  A    between atoms: _27  and  _29
REMARK   12  A    between atoms: _29  and  _30
REMARK   13  A    between atoms: _29  and  _32
REMARK   14  A    between atoms: _32  and  _33
REMARK   15  A    between atoms: _38  and  _39
REMARK   16  A    between atoms: _41  and  _43
REMARK   17  A    between atoms: _43  and  _44
REMARK   18  A    between atoms: _43  and  _46
REMARK   19  A    between atoms: _46  and  _47
REMARK   20  A    between atoms: _53  and  _55
REMARK   21  A    between atoms: _55  and  _56
REMARK   22  A    between atoms: _55  and  _58
REMARK   23  A    between atoms: _61  and  _63
REMARK   24  A    between atoms: _63  and  _64
REMARK   25  A    between atoms: _63  and  _66
REMARK   26  A    between atoms: _66  and  _67
REMARK   27  A    between atoms: _70  and  _72
REMARK   28  A    between atoms: _72  and  _73
REMARK   29  A    between atoms: _72  and  _75
REMARK   30  A    between atoms: _75  and  _76
REMARK   31  A    between atoms: _81  and  _82
REMARK   32  A    between atoms: _84  and  _86
REMARK   33  A    between atoms: _86  and  _87
REMARK   34  A    between atoms: _86  and  _89
REMARK   35  A    between atoms: _89  and  _90
REMARK   36  A    between atoms: _90  and  _91
REMARK   37  A    between atoms: _93  and  _95
REMARK   38  A    between atoms: _95  and  _96
REMARK   39  A    between atoms: _95  and  _98
REMARK   40  A    between atoms: _98  and  _99
REMARK   41  A    between atoms: _99  and  _100
REMARK   42  A    between atoms: _103  and  _105
REMARK   43  A    between atoms: _105  and  _106
REMARK   44  A    between atoms: _105  and  _108
REMARK   45  A    between atoms: _111  and  _113
REMARK   46  A    between atoms: _113  and  _114
REMARK   47  A    between atoms: _116  and  _118
REMARK   48  A    between atoms: _118  and  _119
REMARK   49  A    between atoms: _118  and  _121
REMARK   50  A    between atoms: _124  and  _126
REMARK   51  A    between atoms: _126  and  _127
REMARK   52  A    between atoms: _126  and  _129
REMARK   53  A    between atoms: _129  and  _130
REMARK   54  A    between atoms: _136  and  _138
REMARK   55  A    between atoms: _138  and  _139
REMARK   56  A    between atoms: _138  and  _141
REMARK   57  A    between atoms: _144  and  _146
REMARK   58  A    between atoms: _146  and  _147
REMARK   59  A    between atoms: _146  and  _149
REMARK   60  A    between atoms: _149  and  _150
REMARK   61  A    between atoms: _155  and  _156
REMARK   62  A    between atoms: _158  and  _160
REMARK   63  A    between atoms: _160  and  _161
REMARK   64  A    between atoms: _160  and  _163
REMARK   65  A    between atoms: _163  and  _164
REMARK   66  A    between atoms: _164  and  _165
REMARK   67  A    between atoms: _167  and  _169
REMARK   68  A    between atoms: _169  and  _170
REMARK   69  A    between atoms: _169  and  _172
REMARK   70  A    between atoms: _172  and  _173
REMARK   71  A    between atoms: _173  and  _174
REMARK   72  A    between atoms: _177  and  _179
REMARK   73  A    between atoms: _179  and  _180
REMARK   74  A    between atoms: _179  and  _182
REMARK   75  A    between atoms: _182  and  _183
REMARK   76  A    between atoms: _183  and  _184
REMARK   77  A    between atoms: _187  and  _189
REMARK   78  A    between atoms: _189  and  _190
REMARK   79  A    between atoms: _189  and  _192
REMARK   80  A    between atoms: _192  and  _193
REMARK   81  A    between atoms: _198  and  _199
REMARK   82  A    between atoms: _201  and  _203
REMARK   83  A    between atoms: _203  and  _204
REMARK   84  A    between atoms: _203  and  _206
REMARK   85  A    between atoms: _206  and  _207
REMARK   86  A    between atoms: _207  and  _208
REMARK   87  A    between atoms: _208  and  _209
REMARK   88  A    between atoms: _218  and  _220
REMARK   89  A    between atoms: _220  and  _221
REMARK   90  A    between atoms: _220  and  _223
REMARK   91  A    between atoms: _223  and  _224
REMARK   92  A    between atoms: _224  and  _225
REMARK   93  A    between atoms: _228  and  _230
REMARK   94  A    between atoms: _230  and  _231
REMARK   95  A    between atoms: _230  and  _233
REMARK   96  A    between atoms: _233  and  _234
REMARK   97  A    between atoms: _234  and  _235
REMARK   98  A    between atoms: _240  and  _242
REMARK   99  A    between atoms: _242  and  _243
REMARK  100  A    between atoms: _242  and  _245
REMARK  101  A    between atoms: _245  and  _246
REMARK  102  A    between atoms: _246  and  _247
REMARK  103  A    between atoms: _247  and  _248
REMARK  104  A    between atoms: _248  and  _249
REMARK  105  A    between atoms: _253  and  _255
REMARK  106  A    between atoms: _255  and  _256
REMARK  107  A    between atoms: _259  and  _261
REMARK  108  A    between atoms: _261  and  _262
REMARK  109  A    between atoms: _264  and  _266
REMARK  110  A    between atoms: _266  and  _267
REMARK  111  A    between atoms: _266  and  _269
REMARK  112  A    between atoms: _269  and  _270
REMARK  113  A    between atoms: _275  and  _277
REMARK  114  A    between atoms: _277  and  _278
REMARK  115  A    between atoms: _277  and  _280
REMARK  116  A    between atoms: _280  and  _281
REMARK  117  A    between atoms: _281  and  _282
REMARK  118  A    between atoms: _285  and  _287
REMARK  119  A    between atoms: _287  and  _288
REMARK  120  A    between atoms: _287  and  _290
REMARK  121  A    between atoms: _290  and  _291
REMARK  122  A    between atoms: _291  and  _292
REMARK  123  A    between atoms: _297  and  _299
REMARK  124  A    between atoms: _299  and  _300
REMARK  125  A    between atoms: _299  and  _302
REMARK  126  A    between atoms: _302  and  _303
REMARK  127  A    between atoms: _305  and  _307
REMARK  128  A    between atoms: _307  and  _308
REMARK  129  A    between atoms: _307  and  _310
REMARK  130  A    between atoms: _310  and  _311
REMARK  131  A    between atoms: _317  and  _319
REMARK  132  A    between atoms: _319  and  _320
REMARK  133  A    between atoms: _319  and  _322
REMARK  134  A    between atoms: _325  and  _327
REMARK  135  A    between atoms: _327  and  _328
REMARK  136  A    between atoms: _327  and  _330
REMARK  137  A    between atoms: _330  and  _331
REMARK  138  A    between atoms: _334  and  _336
REMARK  139  A    between atoms: _336  and  _337
REMARK  140  A    between atoms: _336  and  _339
REMARK  141  A    between atoms: _339  and  _340
REMARK  142  A    between atoms: _343  and  _345
REMARK  143  A    between atoms: _345  and  _346
REMARK  144  A    between atoms: _345  and  _348
REMARK  145  A    between atoms: _348  and  _349
REMARK  146  A    between atoms: _352  and  _354
REMARK  147  A    between atoms: _354  and  _355
REMARK  148  A    between atoms: _354  and  _357
REMARK  149  A    between atoms: _357  and  _358
REMARK  150  A    between atoms: _361  and  _363
REMARK  151  A    between atoms: _363  and  _364
REMARK  152  A    between atoms: _363  and  _366
REMARK  153  A    between atoms: _366  and  _367
REMARK  154  A    between atoms: _372  and  _373
REMARK  155  A    between atoms: _375  and  _377
REMARK  156  A    between atoms: _377  and  _378
REMARK  157  A    between atoms: _377  and  _380
REMARK  158  A    between atoms: _380  and  _381
REMARK  159  A    between atoms: _386  and  _387
REMARK  160  A    between atoms: _389  and  _391
REMARK  161  A    between atoms: _391  and  _392
REMARK  162  A    between atoms: _391  and  _394
REMARK  163  A    between atoms: _394  and  _395
REMARK  164  A    between atoms: _398  and  _400
REMARK  165  A    between atoms: _400  and  _401
REMARK  166  A    between atoms: _400  and  _403
REMARK  167  A    between atoms: _403  and  _404
REMARK  168  A    between atoms: _404  and  _405
REMARK  169  A    between atoms: _410  and  _412
REMARK  170  A    between atoms: _412  and  _413
REMARK  171  A    between atoms: _412  and  _415
REMARK  172  A    between atoms: _418  and  _420
REMARK  173  A    between atoms: _420  and  _421
REMARK  174  A    between atoms: _420  and  _423
REMARK  175  A    between atoms: _423  and  _424
REMARK  176  A    between atoms: _427  and  _429
REMARK  177  A    between atoms: _429  and  _430
REMARK  178  A    between atoms: _429  and  _432
REMARK  179  A    between atoms: _432  and  _433
REMARK  180  A    between atoms: _435  and  _437
REMARK  181  A    between atoms: _437  and  _438
REMARK  182  A    between atoms: _440  and  _442
REMARK  183  A    between atoms: _442  and  _443
REMARK  184  A    between atoms: _442  and  _445
REMARK  185  A    between atoms: _445  and  _446
REMARK  186  A    between atoms: _446  and  _744
REMARK  187  A    between atoms: _447  and  _449
REMARK  188  A    between atoms: _449  and  _450
REMARK  189  A    between atoms: _449  and  _452
REMARK  190  A    between atoms: _452  and  _453
REMARK  191  A    between atoms: _458  and  _459
REMARK  192  A    between atoms: _461  and  _463
REMARK  193  A    between atoms: _463  and  _464
REMARK  194  A    between atoms: _463  and  _466
REMARK  195  A    between atoms: _466  and  _467
REMARK  196  A    between atoms: _467  and  _468
REMARK  197  A    between atoms: _473  and  _475
REMARK  198  A    between atoms: _475  and  _476
REMARK  199  A    between atoms: _475  and  _478
REMARK  200  A    between atoms: _478  and  _479
REMARK  201  A    between atoms: _479  and  _480
REMARK  202  A    between atoms: _485  and  _487
REMARK  203  A    between atoms: _487  and  _488
REMARK  204  A    between atoms: _487  and  _490
REMARK  205  A    between atoms: _490  and  _491
REMARK  206  A    between atoms: _496  and  _497
REMARK  207  A    between atoms: _499  and  _501
REMARK  208  A    between atoms: _501  and  _502
REMARK  209  A    between atoms: _505  and  _507
REMARK  210  A    between atoms: _507  and  _508
REMARK  211  A    between atoms: _507  and  _510
REMARK  212  A    between atoms: _510  and  _511
REMARK  213  A    between atoms: _516  and  _517
REMARK  214  A    between atoms: _519  and  _521
REMARK  215  A    between atoms: _521  and  _522
REMARK  216  A    between atoms: _521  and  _524
REMARK  217  A    between atoms: _524  and  _525
REMARK  218  A    between atoms: _530  and  _531
REMARK  219  A    between atoms: _533  and  _535
REMARK  220  A    between atoms: _535  and  _536
REMARK  221  A    between atoms: _535  and  _538
REMARK  222  A    between atoms: _538  and  _539
REMARK  223  A    between atoms: _542  and  _544
REMARK  224  A    between atoms: _544  and  _545
REMARK  225  A    between atoms: _544  and  _547
REMARK  226  A    between atoms: _547  and  _548
REMARK  227  A    between atoms: _558  and  _560
REMARK  228  A    between atoms: _560  and  _561
REMARK  229  A    between atoms: _564  and  _566
REMARK  230  A    between atoms: _566  and  _567
REMARK  231  A    between atoms: _570  and  _572
REMARK  232  A    between atoms: _572  and  _573
REMARK  233  A    between atoms: _572  and  _575
REMARK  234  A    between atoms: _575  and  _576
REMARK  235  A    between atoms: _579  and  _581
REMARK  236  A    between atoms: _581  and  _582
REMARK  237  A    between atoms: _581  and  _584
REMARK  238  A    between atoms: _584  and  _585
REMARK  239  A    between atoms: _588  and  _590
REMARK  240  A    between atoms: _590  and  _591
REMARK  241  A    between atoms: _590  and  _593
REMARK  242  A    between atoms: _593  and  _594
REMARK  243  A    between atoms: _597  and  _599
REMARK  244  A    between atoms: _599  and  _600
REMARK  245  A    between atoms: _599  and  _602
REMARK  246  A    between atoms: _602  and  _603
REMARK  247  A    between atoms: _603  and  _604
REMARK  248  A    between atoms: _604  and  _605
REMARK  249  A    between atoms: _605  and  _606
REMARK  250  A    between atoms: _610  and  _612
REMARK  251  A    between atoms: _612  and  _613
REMARK  252  A    between atoms: _612  and  _615
REMARK  253  A    between atoms: _615  and  _616
REMARK  254  A    between atoms: _621  and  _623
REMARK  255  A    between atoms: _623  and  _624
REMARK  256  A    between atoms: _623  and  _626
REMARK  257  A    between atoms: _626  and  _627
REMARK  258  A    between atoms: _627  and  _628
REMARK  259  A    between atoms: _628  and  _629
REMARK  260  A    between atoms: _629  and  _630
REMARK  261  A    between atoms: _634  and  _636
REMARK  262  A    between atoms: _636  and  _637
REMARK  263  A    between atoms: _636  and  _639
REMARK  264  A    between atoms: _639  and  _640
REMARK  265  A    between atoms: _650  and  _652
REMARK  266  A    between atoms: _652  and  _653
REMARK  267  A    between atoms: _656  and  _658
REMARK  268  A    between atoms: _658  and  _659
REMARK  269  A    between atoms: _661  and  _663
REMARK  270  A    between atoms: _663  and  _664
REMARK  271  A    between atoms: _667  and  _669
REMARK  272  A    between atoms: _669  and  _670
REMARK  273  A    between atoms: _673  and  _675
REMARK  274  A    between atoms: _675  and  _676
REMARK  275  A    between atoms: _675  and  _678
REMARK  276  A    between atoms: _678  and  _679
REMARK  277  A    between atoms: _684  and  _685
REMARK  278  A    between atoms: _687  and  _689
REMARK  279  A    between atoms: _689  and  _690
REMARK  280  A    between atoms: _689  and  _692
REMARK  281  A    between atoms: _692  and  _693
REMARK  282  A    between atoms: _698  and  _699
REMARK  283  A    between atoms: _701  and  _703
REMARK  284  A    between atoms: _703  and  _704
REMARK  285  A    between atoms: _703  and  _706
REMARK  286  A    between atoms: _706  and  _707
REMARK  287  A    between atoms: _712  and  _713
REMARK  288  A    between atoms: _715  and  _717
REMARK  289  A    between atoms: _717  and  _718
REMARK  290  A    between atoms: _717  and  _720
REMARK  291  A    between atoms: _720  and  _721
REMARK  292  A    between atoms: _724  and  _726
REMARK  293  A    between atoms: _726  and  _727
REMARK  294  A    between atoms: _729  and  _731
REMARK  295  A    between atoms: _731  and  _732
REMARK  296  A    between atoms: _731  and  _734
REMARK  297  A    between atoms: _734  and  _735
REMARK  298  A    between atoms: _738  and  _740
REMARK  299  A    between atoms: _740  and  _741
REMARK  300  A    between atoms: _740  and  _743
REMARK  301  A    between atoms: _743  and  _744
REMARK  302  A    between atoms: _745  and  _747
REMARK  303  A    between atoms: _747  and  _748
REMARK  304  A    between atoms: _747  and  _750
REMARK  305  A    between atoms: _753  and  _755
REMARK  306  A    between atoms: _755  and  _756
REMARK  307  A    between atoms: _755  and  _758
REMARK  308  A    between atoms: _758  and  _759
REMARK  309  A    between atoms: _759  and  _760
REMARK  310  A    between atoms: _763  and  _765
REMARK  311  A    between atoms: _765  and  _766
REMARK  312  A    between atoms: _765  and  _768
REMARK  313  A    between atoms: _768  and  _769
REMARK  314  A    between atoms: _779  and  _781
REMARK  315  A    between atoms: _781  and  _782
REMARK  316  A    between atoms: _781  and  _784
REMARK  317  A    between atoms: _784  and  _785
REMARK  318  A    between atoms: _788  and  _790
REMARK  319  A    between atoms: _790  and  _791
REMARK  320  A    between atoms: _790  and  _793
REMARK  321  A    between atoms: _793  and  _794
REMARK  322  A    between atoms: _799  and  _800
REMARK                            x       y       z     vdW  Elec       q    Type
REMARK                         _______ _______ _______ _____ _____    ______ ____
ROOT
ATOM      1  CA  VAL A   1      53.524  47.950   5.638  0.00  0.00    +0.133 C 
ENDROOT
BRANCH   1   2
ATOM      2  CB  VAL A   1      53.947  48.649   6.949  0.00  0.00    +0.023 C 
ATOM      3  CG2 VAL A   1      53.304  50.047   7.028  0.00  0.00    +0.002 C 
ATOM      4  CG1 VAL A   1      55.468  48.788   6.978  0.00  0.00    +0.002 C 
ENDBRANCH   1   2
BRANCH   1   5
ATOM      5  N   VAL A   1      52.128  47.519   5.610  0.00  0.00    -0.239 NA
ATOM      6  H   VAL A   1      51.743  46.990   6.418  0.00  0.00    +0.142 HD
ENDBRANCH   1   5
BRANCH   1   7
ATOM      7  C   VAL A   1      54.166  46.559   5.546  0.00  0.00    +0.224 C 
ATOM      8  O   VAL A   1      53.962  45.708   6.423  0.00  0.00    -0.287 OA
ENDBRANCH   1   7
TORSDOF 3
REMARK  Name = ../refined-set-2016/1fzk/1fzk_pocket.pdb
REMARK  322 active torsions:
REMARK  status: ('A' for Active; 'I' for Inactive)
REMARK    1  A    between atoms: _1  and  _3
REMARK    2  A    between atoms: _3  and  _4
REMARK    3  A    between atoms: _3  and  _6
REMARK    4  A    between atoms: _6  and  _7
REMARK    5  A    between atoms: _10  and  _12
REMARK    6  A    between atoms: _12  and  _13
REMARK    7  A    between atoms: _12  and  _15
REMARK    8  A    between atoms: _15  and  _16
REMARK    9  A    between atoms: _16  and  _17
REMARK   10  A    between atoms: _17  and  _18
REMARK   11  A    between atoms: _27  and  _29
REMARK   12  A    between atoms: _29  and  _30
REMARK   13  A    between atoms: _29  and  _32
REMARK   14  A    between atoms: _32  and  _33
REMARK   15  A    between atoms: _38  and  _39
REMARK   16  A    between atoms: _41  and  _43
REMARK   17  A    between atoms: _43  and  _44
REMARK   18  A    between atoms: _43  and  _46
REMARK   19  A    between atoms: _46  and  _47
REMARK   20  A    between atoms: _53  and  _55
REMARK   21  A    between atoms: _55  and  _56
REMARK   22  A    between atoms: _55  and  _58
REMARK   23  A    between atoms: _61  and  _63
REMARK   24  A    between atoms: _63  and  _64
REMARK   25  A    between atoms: _63  and  _66
REMARK   26  A    between atoms: _66  and  _67
REMARK   27  A    between atoms: _70  and  _72
REMARK   28  A    between atoms: _72  and  _73
REMARK   29  A    between atoms: _72  and  _75
REMARK   30  A    between atoms: _75  and  _76
REMARK   31  A    between atoms: _81  and  _82
REMARK   32  A    between atoms: _84  and  _86
REMARK   33  A    between atoms: _86  and  _87
REMARK   34  A    between atoms: _86  and  _89
REMARK   35  A    between atoms: _89  and  _90
REMARK   36  A    between atoms: _90  and  _91
REMARK   37  A    between atoms: _93  and  _95
REMARK   38  A    between atoms: _95  and  _96
REMARK   39  A    between atoms: _95  and  _98
REMARK   40  A    between atoms: _98  and  _99
REMARK   41  A    between atoms: _99  and  _100
REMARK   42  A    between atoms: _103  and  _105
REMARK   43  A    between atoms: _105  and  _106
REMARK   44  A    between atoms: _105  and  _108
REMARK   45  A    between atoms: _111  and  _113
REMARK   46  A    between atoms: _113  and  _114
REMARK   47  A    between atoms: _116  and  _118
REMARK   48  A    between atoms: _118  and  _119
REMARK   49  A    between atoms: _118  and  _121
REMARK   50  A    between atoms: _124  and  _126
REMARK   51  A    between atoms: _126  and  _127
REMARK   52  A    between atoms: _126  and  _129
REMARK   53  A    between atoms: _129  and  _130
REMARK   54  A    between atoms: _136  and  _138
REMARK   55  A    between atoms: _138  and  _139
REMARK   56  A    between atoms: _138  and  _141
REMARK   57  A    between atoms: _144  and  _146
REMARK   58  A    between atoms: _146  and  _147
REMARK   59  A    between atoms: _146  and  _149
REMARK   60  A    between atoms: _149  and  _150
REMARK   61  A    between atoms: _155  and  _156
REMARK   62  A    between atoms: _158  and  _160
REMARK   63  A    between atoms: _160  and  _161
REMARK   64  A    between atoms: _160  and  _163
REMARK   65  A    between atoms: _163  and  _164
REMARK   66  A    between atoms: _164  and  _165
REMARK   67  A    between atoms: _167  and  _169
REMARK   68  A    between atoms: _169  and  _170
REMARK   69  A    between atoms: _169  and  _172
REMARK   70  A    between atoms: _172  and  _173
REMARK   71  A    between atoms: _173  and  _174
REMARK   72  A    between atoms: _177  and  _179
REMARK   73  A    between atoms: _179  and  _180
REMARK   74  A    between atoms: _179  and  _182
REMARK   75  A    between atoms: _182  and  _183
REMARK   76  A    between atoms: _183  and  _184
REMARK   77  A    between atoms: _187  and  _189
REMARK   78  A    between atoms: _189  and  _190
REMARK   79  A    between atoms: _189  and  _192
REMARK   80  A    between atoms: _192  and  _193
REMARK   81  A    between atoms: _198  and  _199
REMARK   82  A    between atoms: _201  and  _203
REMARK   83  A    between atoms: _203  and  _204
REMARK   84  A    between atoms: _203  and  _206
REMARK   85  A    between atoms: _206  and  _207
REMARK   86  A    between atoms: _207  and  _208
REMARK   87  A    between atoms: _208  and  _209
REMARK   88  A    between atoms: _218  and  _220
REMARK   89  A    between atoms: _220  and  _221
REMARK   90  A    between atoms: _220  and  _223
REMARK   91  A    between atoms: _223  and  _224
REMARK   92  A    between atoms: _224  and  _225
REMARK   93  A    between atoms: _228  and  _230
REMARK   94  A    between atoms: _230  and  _231
REMARK   95  A    between atoms: _230  and  _233
REMARK   96  A    between atoms: _233  and  _234
REMARK   97  A    between atoms: _234  and  _235
REMARK   98  A    between atoms: _240  and  _242
REMARK   99  A    between atoms: _242  and  _243
REMARK  100  A    between atoms: _242  and  _245
REMARK  101  A    between atoms: _245  and  _246
REMARK  102  A    between atoms: _246  and  _247
REMARK  103  A    between atoms: _247  and  _248
REMARK  104  A    between atoms: _248  and  _249
REMARK  105  A    between atoms: _253  and  _255
REMARK  106  A    between atoms: _255  and  _256
REMARK  107  A    between atoms: _259  and  _261
REMARK  108  A    between atoms: _261  and  _262
REMARK  109  A    between atoms: _264  and  _266
REMARK  110  A    between atoms: _266  and  _267
REMARK  111  A    between atoms: _266  and  _269
REMARK  112  A    between atoms: _269  and  _270
REMARK  113  A    between atoms: _275  and  _277
REMARK  114  A    between atoms: _277  and  _278
REMARK  115  A    between atoms: _277  and  _280
REMARK  116  A    between atoms: _280  and  _281
REMARK  117  A    between atoms: _281  and  _282
REMARK  118  A    between atoms: _285  and  _287
REMARK  119  A    between atoms: _287  and  _288
REMARK  120  A    between atoms: _287  and  _290
REMARK  121  A    between atoms: _290  and  _291
REMARK  122  A    between atoms: _291  and  _292
REMARK  123  A    between atoms: _297  and  _299
REMARK  124  A    between atoms: _299  and  _300
REMARK  125  A    between atoms: _299  and  _302
REMARK  126  A    between atoms: _302  and  _303
REMARK  127  A    between atoms: _305  and  _307
REMARK  128  A    between atoms: _307  and  _308
REMARK  129  A    between atoms: _307  and  _310
REMARK  130  A    between atoms: _310  and  _311
REMARK  131  A    between atoms: _317  and  _319
REMARK  132  A    between atoms: _319  and  _320
REMARK  133  A    between atoms: _319  and  _322
REMARK  134  A    between atoms: _325  and  _327
REMARK  135  A    between atoms: _327  and  _328
REMARK  136  A    between atoms: _327  and  _330
REMARK  137  A    between atoms: _330  and  _331
REMARK  138  A    between atoms: _334  and  _336
REMARK  139  A    between atoms: _336  and  _337
REMARK  140  A    between atoms: _336  and  _339
REMARK  141  A    between atoms: _339  and  _340
REMARK  142  A    between atoms: _343  and  _345
REMARK  143  A    between atoms: _345  and  _346
REMARK  144  A    between atoms: _345  and  _348
REMARK  145  A    between atoms: _348  and  _349
REMARK  146  A    between atoms: _352  and  _354
REMARK  147  A    between atoms: _354  and  _355
REMARK  148  A    between atoms: _354  and  _357
REMARK  149  A    between atoms: _357  and  _358
REMARK  150  A    between atoms: _361  and  _363
REMARK  151  A    between atoms: _363  and  _364
REMARK  152  A    between atoms: _363  and  _366
REMARK  153  A    between atoms: _366  and  _367
REMARK  154  A    between atoms: _372  and  _373
REMARK  155  A    between atoms: _375  and  _377
REMARK  156  A    between atoms: _377  and  _378
REMARK  157  A    between atoms: _377  and  _380
REMARK  158  A    between atoms: _380  and  _381
REMARK  159  A    between atoms: _386  and  _387
REMARK  160  A    between atoms: _389  and  _391
REMARK  161  A    between atoms: _391  and  _392
REMARK  162  A    between atoms: _391  and  _394
REMARK  163  A    between atoms: _394  and  _395
REMARK  164  A    between atoms: _398  and  _400
REMARK  165  A    between atoms: _400  and  _401
REMARK  166  A    between atoms: _400  and  _403
REMARK  167  A    between atoms: _403  and  _404
REMARK  168  A    between atoms: _404  and  _405
REMARK  169  A    between atoms: _410  and  _412
REMARK  170  A    between atoms: _412  and  _413
REMARK  171  A    between atoms: _412  and  _415
REMARK  172  A    between atoms: _418  and  _420
REMARK  173  A    between atoms: _420  and  _421
REMARK  174  A    between atoms: _420  and  _423
REMARK  175  A    between atoms: _423  and  _424
REMARK  176  A    between atoms: _427  and  _429
REMARK  177  A    between atoms: _429  and  _430
REMARK  178  A    between atoms: _429  and  _432
REMARK  179  A    between atoms: _432  and  _433
REMARK  180  A    between atoms: _435  and  _437
REMARK  181  A    between atoms: _437  and  _438
REMARK  182  A    between atoms: _440  and  _442
REMARK  183  A    between atoms: _442  and  _443
REMARK  184  A    between atoms: _442  and  _445
REMARK  185  A    between atoms: _445  and  _446
REMARK  186  A    between atoms: _446  and  _744
REMARK  187  A    between atoms: _447  and  _449
REMARK  188  A    between atoms: _449  and  _450
REMARK  189  A    between atoms: _449  and  _452
REMARK  190  A    between atoms: _452  and  _453
REMARK  191  A    between atoms: _458  and  _459
REMARK  192  A    between atoms: _461  and  _463
REMARK  193  A    between atoms: _463  and  _464
REMARK  194  A    between atoms: _463  and  _466
REMARK  195  A    between atoms: _466  and  _467
REMARK  196  A    between atoms: _467  and  _468
REMARK  197  A    between atoms: _473  and  _475
REMARK  198  A    between atoms: _475  and  _476
REMARK  199  A    between atoms: _475  and  _478
REMARK  200  A    between atoms: _478  and  _479
REMARK  201  A    between atoms: _479  and  _480
REMARK  202  A    between atoms: _485  and  _487
REMARK  203  A    between atoms: _487  and  _488
REMARK  204  A    between atoms: _487  and  _490
REMARK  205  A    between atoms: _490  and  _491
REMARK  206  A    between atoms: _496  and  _497
REMARK  207  A    between atoms: _499  and  _501
REMARK  208  A    between atoms: _501  and  _502
REMARK  209  A    between atoms: _505  and  _507
REMARK  210  A    between atoms: _507  and  _508
REMARK  211  A    between atoms: _507  and  _510
REMARK  212  A    between atoms: _510  and  _511
REMARK  213  A    between atoms: _516  and  _517
REMARK  214  A    between atoms: _519  and  _521
REMARK  215  A    between atoms: _521  and  _522
REMARK  216  A    between atoms: _521  and  _524
REMARK  217  A    between atoms: _524  and  _525
REMARK  218  A    between atoms: _530  and  _531
REMARK  219  A    between atoms: _533  and  _535
REMARK  220  A    between atoms: _535  and  _536
REMARK  221  A    between atoms: _535  and  _538
REMARK  222  A    between atoms: _538  and  _539
REMARK  223  A    between atoms: _542  and  _544
REMARK  224  A    between atoms: _544  and  _545
REMARK  225  A    between atoms: _544  and  _547
REMARK  226  A    between atoms: _547  and  _548
REMARK  227  A    between atoms: _558  and  _560
REMARK  228  A    between atoms: _560  and  _561
REMARK  229  A    between atoms: _564  and  _566
REMARK  230  A    between atoms: _566  and  _567
REMARK  231  A    between atoms: _570  and  _572
REMARK  232  A    between atoms: _572  and  _573
REMARK  233  A    between atoms: _572  and  _575
REMARK  234  A    between atoms: _575  and  _576
REMARK  235  A    between atoms: _579  and  _581
REMARK  236  A    between atoms: _581  and  _582
REMARK  237  A    between atoms: _581  and  _584
REMARK  238  A    between atoms: _584  and  _585
REMARK  239  A    between atoms: _588  and  _590
REMARK  240  A    between atoms: _590  and  _591
REMARK  241  A    between atoms: _590  and  _593
REMARK  242  A    between atoms: _593  and  _594
REMARK  243  A    between atoms: _597  and  _599
REMARK  244  A    between atoms: _599  and  _600
REMARK  245  A    between atoms: _599  and  _602
REMARK  246  A    between atoms: _602  and  _603
REMARK  247  A    between atoms: _603  and  _604
REMARK  248  A    between atoms: _604  and  _605
REMARK  249  A    between atoms: _605  and  _606
REMARK  250  A    between atoms: _610  and  _612
REMARK  251  A    between atoms: _612  and  _613
REMARK  252  A    between atoms: _612  and  _615
REMARK  253  A    between atoms: _615  and  _616
REMARK  254  A    between atoms: _621  and  _623
REMARK  255  A    between atoms: _623  and  _624
REMARK  256  A    between atoms: _623  and  _626
REMARK  257  A    between atoms: _626  and  _627
REMARK  258  A    between atoms: _627  and  _628
REMARK  259  A    between atoms: _628  and  _629
REMARK  260  A    between atoms: _629  and  _630
REMARK  261  A    between atoms: _634  and  _636
REMARK  262  A    between atoms: _636  and  _637
REMARK  263  A    between atoms: _636  and  _639
REMARK  264  A    between atoms: _639  and  _640
REMARK  265  A    between atoms: _650  and  _652
REMARK  266  A    between atoms: _652  and  _653
REMARK  267  A    between atoms: _656  and  _658
REMARK  268  A    between atoms: _658  and  _659
REMARK  269  A    between atoms: _661  and  _663
REMARK  270  A    between atoms: _663  and  _664
REMARK  271  A    between atoms: _667  and  _669
REMARK  272  A    between atoms: _669  and  _670
REMARK  273  A    between atoms: _673  and  _675
REMARK  274  A    between atoms: _675  and  _676
REMARK  275  A    between atoms: _675  and  _678
REMARK  276  A    between atoms: _678  and  _679
REMARK  277  A    between atoms: _684  and  _685
REMARK  278  A    between atoms: _687  and  _689
REMARK  279  A    between atoms: _689  and  _690
REMARK  280  A    between atoms: _689  and  _692
REMARK  281  A    between atoms: _692  and  _693
REMARK  282  A    between atoms: _698  and  _699
REMARK  283  A    between atoms: _701  and  _703
REMARK  284  A    between atoms: _703  and  _704
REMARK  285  A    between atoms: _703  and  _706
REMARK  286  A    between atoms: _706  and  _707
REMARK  287  A    between atoms: _712  and  _713
REMARK  288  A    between atoms: _715  and  _717
REMARK  289  A    between atoms: _717  and  _718
REMARK  290  A    between atoms: _717  and  _720
REMARK  291  A    between atoms: _720  and  _721
REMARK  292  A    between atoms: _724  and  _726
REMARK  293  A    between atoms: _726  and  _727
REMARK  294  A    between atoms: _729  and  _731
REMARK  295  A    between atoms: _731  and  _732
REMARK  296  A    between atoms: _731  and  _734
REMARK  297  A    between atoms: _734  and  _735
REMARK  298  A    between atoms: _738  and  _740
REMARK  299  A    between atoms: _740  and  _741
REMARK  300  A    between atoms: _740  and  _743
REMARK  301  A    between atoms: _743  and  _744
REMARK  302  A    between atoms: _745  and  _747
REMARK  303  A    between atoms: _747  and  _748
REMARK  304  A    between atoms: _747  and  _750
REMARK  305  A    between atoms: _753  and  _755
REMARK  306  A    between atoms: _755  and  _756
REMARK  307  A    between atoms: _755  and  _758
REMARK  308  A    between atoms: _758  and  _759
REMARK  309  A    between atoms: _759  and  _760
REMARK  310  A    between atoms: _763  and  _765
REMARK  311  A    between atoms: _765  and  _766
REMARK  312  A    between atoms: _765  and  _768
REMARK  313  A    between atoms: _768  and  _769
REMARK  314  A    between atoms: _779  and  _781
REMARK  315  A    between atoms: _781  and  _782
REMARK  316  A    between atoms: _781  and  _784
REMARK  317  A    between atoms: _784  and  _785
REMARK  318  A    between atoms: _788  and  _790
REMARK  319  A    between atoms: _790  and  _791
REMARK  320  A    between atoms: _790  and  _793
REMARK  321  A    between atoms: _793  and  _794
REMARK  322  A    between atoms: _799  and  _800
REMARK                            x       y       z     vdW  Elec       q    Type
REMARK                         _______ _______ _______ _____ _____    ______ ____
ROOT
ATOM      1  CA  PHE A   1      47.995  48.070   9.612  0.00  0.00    +0.149 C 
ENDROOT
BRANCH   1   2
ATOM      2  C   PHE A   1      46.828  49.069   9.698  0.00  0.00    +0.239 C 
ATOM      3  O   PHE A   1      46.649  49.706  10.734  0.00  0.00    -0.274 OA
ATOM      4  N   VAL A   2      46.039  49.198   8.631  0.00  0.00    -0.298 N 
ATOM      5  H   VAL A   2      46.267  48.654   7.774  0.00  0.00    +0.150 HD
BRANCH   4   6
ATOM      6  CA  VAL A   2      44.858  50.079   8.615  0.00  0.00    +0.137 C 
BRANCH   6   7
ATOM      7  CB  VAL A   2      45.173  51.510   8.081  0.00  0.00    +0.026 C 
ATOM      8  CG2 VAL A   2      46.103  52.242   9.047  0.00  0.00    +0.002 C 
ATOM      9  CG1 VAL A   2      45.792  51.429   6.690  0.00  0.00    +0.002 C 
ENDBRANCH   6   7
BRANCH   6  10
ATOM     10  C   VAL A   2      43.777  49.471   7.714  0.00  0.00    +0.227 C 
ATOM     11  O   VAL A   2      44.083  48.694   6.797  0.00  0.00    -0.286 OA
ENDBRANCH   6  10
ENDBRANCH   4   6
ENDBRANCH   1   2
BRANCH   1  12
ATOM     12  N   PHE A   1      47.932  47.041   8.573  0.00  0.00    -0.238 NA
ATOM     13  H   PHE A   1      47.744  47.300   7.583  0.00  0.00    +0.142 HD
ENDBRANCH   1  12
BRANCH   1  14
ATOM     14  CB  PHE A   1      49.358  48.806   9.562  0.00  0.00    +0.053 C 
BRANCH  14  15
ATOM     15  CG  PHE A   1      49.441  49.931   8.555  0.00  0.00    -0.020 A 
ATOM     16  CD2 PHE A   1      49.586  51.247   8.992  0.00  0.00    -0.004 A 
ATOM     17  CE2 PHE A   1      49.706  52.300   8.080  0.00  0.00    -0.000 A 
ATOM     18  CZ  PHE A   1      49.682  52.044   6.712  0.00  0.00    -0.000 A 
ATOM     19  CE1 PHE A   1      49.536  50.734   6.259  0.00  0.00    -0.000 A 
ATOM     20  CD1 PHE A   1      49.416  49.682   7.185  0.00  0.00    -0.004 A 
ENDBRANCH  14  15
ENDBRANCH   1  14
TORSDOF 7
REMARK  Name = ../refined-set-2016/1fzk/1fzk_pocket.pdb
REMARK  322 active torsions:
REMARK  status: ('A' for Active; 'I' for Inactive)
REMARK    1  A    between atoms: _1  and  _3
REMARK    2  A    between atoms: _3  and  _4
REMARK    3  A    between atoms: _3  and  _6
REMARK    4  A    between atoms: _6  and  _7
REMARK    5  A    between atoms: _10  and  _12
REMARK    6  A    between atoms: _12  and  _13
REMARK    7  A    between atoms: _12  and  _15
REMARK    8  A    between atoms: _15  and  _16
REMARK    9  A    between atoms: _16  and  _17
REMARK   10  A    between atoms: _17  and  _18
REMARK   11  A    between atoms: _27  and  _29
REMARK   12  A    between atoms: _29  and  _30
REMARK   13  A    between atoms: _29  and  _32
REMARK   14  A    between atoms: _32  and  _33
REMARK   15  A    between atoms: _38  and  _39
REMARK   16  A    between atoms: _41  and  _43
REMARK   17  A    between atoms: _43  and  _44
REMARK   18  A    between atoms: _43  and  _46
REMARK   19  A    between atoms: _46  and  _47
REMARK   20  A    between atoms: _53  and  _55
REMARK   21  A    between atoms: _55  and  _56
REMARK   22  A    between atoms: _55  and  _58
REMARK   23  A    between atoms: _61  and  _63
REMARK   24  A    between atoms: _63  and  _64
REMARK   25  A    between atoms: _63  and  _66
REMARK   26  A    between atoms: _66  and  _67
REMARK   27  A    between atoms: _70  and  _72
REMARK   28  A    between atoms: _72  and  _73
REMARK   29  A    between atoms: _72  and  _75
REMARK   30  A    between atoms: _75  and  _76
REMARK   31  A    between atoms: _81  and  _82
REMARK   32  A    between atoms: _84  and  _86
REMARK   33  A    between atoms: _86  and  _87
REMARK   34  A    between atoms: _86  and  _89
REMARK   35  A    between atoms: _89  and  _90
REMARK   36  A    between atoms: _90  and  _91
REMARK   37  A    between atoms: _93  and  _95
REMARK   38  A    between atoms: _95  and  _96
REMARK   39  A    between atoms: _95  and  _98
REMARK   40  A    between atoms: _98  and  _99
REMARK   41  A    between atoms: _99  and  _100
REMARK   42  A    between atoms: _103  and  _105
REMARK   43  A    between atoms: _105  and  _106
REMARK   44  A    between atoms: _105  and  _108
REMARK   45  A    between atoms: _111  and  _113
REMARK   46  A    between atoms: _113  and  _114
REMARK   47  A    between atoms: _116  and  _118
REMARK   48  A    between atoms: _118  and  _119
REMARK   49  A    between atoms: _118  and  _121
REMARK   50  A    between atoms: _124  and  _126
REMARK   51  A    between atoms: _126  and  _127
REMARK   52  A    between atoms: _126  and  _129
REMARK   53  A    between atoms: _129  and  _130
REMARK   54  A    between atoms: _136  and  _138
REMARK   55  A    between atoms: _138  and  _139
REMARK   56  A    between atoms: _138  and  _141
REMARK   57  A    between atoms: _144  and  _146
REMARK   58  A    between atoms: _146  and  _147
REMARK   59  A    between atoms: _146  and  _149
REMARK   60  A    between atoms: _149  and  _150
REMARK   61  A    between atoms: _155  and  _156
REMARK   62  A    between atoms: _158  and  _160
REMARK   63  A    between atoms: _160  and  _161
REMARK   64  A    between atoms: _160  and  _163
REMARK   65  A    between atoms: _163  and  _164
REMARK   66  A    between atoms: _164  and  _165
REMARK   67  A    between atoms: _167  and  _169
REMARK   68  A    between atoms: _169  and  _170
REMARK   69  A    between atoms: _169  and  _172
REMARK   70  A    between atoms: _172  and  _173
REMARK   71  A    between atoms: _173  and  _174
REMARK   72  A    between atoms: _177  and  _179
REMARK   73  A    between atoms: _179  and  _180
REMARK   74  A    between atoms: _179  and  _182
REMARK   75  A    between atoms: _182  and  _183
REMARK   76  A    between atoms: _183  and  _184
REMARK   77  A    between atoms: _187  and  _189
REMARK   78  A    between atoms: _189  and  _190
REMARK   79  A    between atoms: _189  and  _192
REMARK   80  A    between atoms: _192  and  _193
REMARK   81  A    between atoms: _198  and  _199
REMARK   82  A    between atoms: _201  and  _203
REMARK   83  A    between atoms: _203  and  _204
REMARK   84  A    between atoms: _203  and  _206
REMARK   85  A    between atoms: _206  and  _207
REMARK   86  A    between atoms: _207  and  _208
REMARK   87  A    between atoms: _208  and  _209
REMARK   88  A    between atoms: _218  and  _220
REMARK   89  A    between atoms: _220  and  _221
REMARK   90  A    between atoms: _220  and  _223
REMARK   91  A    between atoms: _223  and  _224
REMARK   92  A    between atoms: _224  and  _225
REMARK   93  A    between atoms: _228  and  _230
REMARK   94  A    between atoms: _230  and  _231
REMARK   95  A    between atoms: _230  and  _233
REMARK   96  A    between atoms: _233  and  _234
REMARK   97  A    between atoms: _234  and  _235
REMARK   98  A    between atoms: _240  and  _242
REMARK   99  A    between atoms: _242  and  _243
REMARK  100  A    between atoms: _242  and  _245
REMARK  101  A    between atoms: _245  and  _246
REMARK  102  A    between atoms: _246  and  _247
REMARK  103  A    between atoms: _247  and  _248
REMARK  104  A    between atoms: _248  and  _249
REMARK  105  A    between atoms: _253  and  _255
REMARK  106  A    between atoms: _255  and  _256
REMARK  107  A    between atoms: _259  and  _261
REMARK  108  A    between atoms: _261  and  _262
REMARK  109  A    between atoms: _264  and  _266
REMARK  110  A    between atoms: _266  and  _267
REMARK  111  A    between atoms: _266  and  _269
REMARK  112  A    between atoms: _269  and  _270
REMARK  113  A    between atoms: _275  and  _277
REMARK  114  A    between atoms: _277  and  _278
REMARK  115  A    between atoms: _277  and  _280
REMARK  116  A    between atoms: _280  and  _281
REMARK  117  A    between atoms: _281  and  _282
REMARK  118  A    between atoms: _285  and  _287
REMARK  119  A    between atoms: _287  and  _288
REMARK  120  A    between atoms: _287  and  _290
REMARK  121  A    between atoms: _290  and  _291
REMARK  122  A    between atoms: _291  and  _292
REMARK  123  A    between atoms: _297  and  _299
REMARK  124  A    between atoms: _299  and  _300
REMARK  125  A    between atoms: _299  and  _302
REMARK  126  A    between atoms: _302  and  _303
REMARK  127  A    between atoms: _305  and  _307
REMARK  128  A    between atoms: _307  and  _308
REMARK  129  A    between atoms: _307  and  _310
REMARK  130  A    between atoms: _310  and  _311
REMARK  131  A    between atoms: _317  and  _319
REMARK  132  A    between atoms: _319  and  _320
REMARK  133  A    between atoms: _319  and  _322
REMARK  134  A    between atoms: _325  and  _327
REMARK  135  A    between atoms: _327  and  _328
REMARK  136  A    between atoms: _327  and  _330
REMARK  137  A    between atoms: _330  and  _331
REMARK  138  A    between atoms: _334  and  _336
REMARK  139  A    between atoms: _336  and  _337
REMARK  140  A    between atoms: _336  and  _339
REMARK  141  A    between atoms: _339  and  _340
REMARK  142  A    between atoms: _343  and  _345
REMARK  143  A    between atoms: _345  and  _346
REMARK  144  A    between atoms: _345  and  _348
REMARK  145  A    between atoms: _348  and  _349
REMARK  146  A    between atoms: _352  and  _354
REMARK  147  A    between atoms: _354  and  _355
REMARK  148  A    between atoms: _354  and  _357
REMARK  149  A    between atoms: _357  and  _358
REMARK  150  A    between atoms: _361  and  _363
REMARK  151  A    between atoms: _363  and  _364
REMARK  152  A    between atoms: _363  and  _366
REMARK  153  A    between atoms: _366  and  _367
REMARK  154  A    between atoms: _372  and  _373
REMARK  155  A    between atoms: _375  and  _377
REMARK  156  A    between atoms: _377  and  _378
REMARK  157  A    between atoms: _377  and  _380
REMARK  158  A    between atoms: _380  and  _381
REMARK  159  A    between atoms: _386  and  _387
REMARK  160  A    between atoms: _389  and  _391
REMARK  161  A    between atoms: _391  and  _392
REMARK  162  A    between atoms: _391  and  _394
REMARK  163  A    between atoms: _394  and  _395
REMARK  164  A    between atoms: _398  and  _400
REMARK  165  A    between atoms: _400  and  _401
REMARK  166  A    between atoms: _400  and  _403
REMARK  167  A    between atoms: _403  and  _404
REMARK  168  A    between atoms: _404  and  _405
REMARK  169  A    between atoms: _410  and  _412
REMARK  170  A    between atoms: _412  and  _413
REMARK  171  A    between atoms: _412  and  _415
REMARK  172  A    between atoms: _418  and  _420
REMARK  173  A    between atoms: _420  and  _421
REMARK  174  A    between atoms: _420  and  _423
REMARK  175  A    between atoms: _423  and  _424
REMARK  176  A    between atoms: _427  and  _429
REMARK  177  A    between atoms: _429  and  _430
REMARK  178  A    between atoms: _429  and  _432
REMARK  179  A    between atoms: _432  and  _433
REMARK  180  A    between atoms: _435  and  _437
REMARK  181  A    between atoms: _437  and  _438
REMARK  182  A    between atoms: _440  and  _442
REMARK  183  A    between atoms: _442  and  _443
REMARK  184  A    between atoms: _442  and  _445
REMARK  185  A    between atoms: _445  and  _446
REMARK  186  A    between atoms: _446  and  _744
REMARK  187  A    between atoms: _447  and  _449
REMARK  188  A    between atoms: _449  and  _450
REMARK  189  A    between atoms: _449  and  _452
REMARK  190  A    between atoms: _452  and  _453
REMARK  191  A    between atoms: _458  and  _459
REMARK  192  A    between atoms: _461  and  _463
REMARK  193  A    between atoms: _463  and  _464
REMARK  194  A    between atoms: _463  and  _466
REMARK  195  A    between atoms: _466  and  _467
REMARK  196  A    between atoms: _467  and  _468
REMARK  197  A    between atoms: _473  and  _475
REMARK  198  A    between atoms: _475  and  _476
REMARK  199  A    between atoms: _475  and  _478
REMARK  200  A    between atoms: _478  and  _479
REMARK  201  A    between atoms: _479  and  _480
REMARK  202  A    between atoms: _485  and  _487
REMARK  203  A    between atoms: _487  and  _488
REMARK  204  A    between atoms: _487  and  _490
REMARK  205  A    between atoms: _490  and  _491
REMARK  206  A    between atoms: _496  and  _497
REMARK  207  A    between atoms: _499  and  _501
REMARK  208  A    between atoms: _501  and  _502
REMARK  209  A    between atoms: _505  and  _507
REMARK  210  A    between atoms: _507  and  _508
REMARK  211  A    between atoms: _507  and  _510
REMARK  212  A    between atoms: _510  and  _511
REMARK  213  A    between atoms: _516  and  _517
REMARK  214  A    between atoms: _519  and  _521
REMARK  215  A    between atoms: _521  and  _522
REMARK  216  A    between atoms: _521  and  _524
REMARK  217  A    between atoms: _524  and  _525
REMARK  218  A    between atoms: _530  and  _531
REMARK  219  A    between atoms: _533  and  _535
REMARK  220  A    between atoms: _535  and  _536
REMARK  221  A    between atoms: _535  and  _538
REMARK  222  A    between atoms: _538  and  _539
REMARK  223  A    between atoms: _542  and  _544
REMARK  224  A    between atoms: _544  and  _545
REMARK  225  A    between atoms: _544  and  _547
REMARK  226  A    between atoms: _547  and  _548
REMARK  227  A    between atoms: _558  and  _560
REMARK  228  A    between atoms: _560  and  _561
REMARK  229  A    between atoms: _564  and  _566
REMARK  230  A    between atoms: _566  and  _567
REMARK  231  A    between atoms: _570  and  _572
REMARK  232  A    between atoms: _572  and  _573
REMARK  233  A    between atoms: _572  and  _575
REMARK  234  A    between atoms: _575  and  _576
REMARK  235  A    between atoms: _579  and  _581
REMARK  236  A    between atoms: _581  and  _582
REMARK  237  A    between atoms: _581  and  _584
REMARK  238  A    between atoms: _584  and  _585
REMARK  239  A    between atoms: _588  and  _590
REMARK  240  A    between atoms: _590  and  _591
REMARK  241  A    between atoms: _590  and  _593
REMARK  242  A    between atoms: _593  and  _594
REMARK  243  A    between atoms: _597  and  _599
REMARK  244  A    between atoms: _599  and  _600
REMARK  245  A    between atoms: _599  and  _602
REMARK  246  A    between atoms: _602  and  _603
REMARK  247  A    between atoms: _603  and  _604
REMARK  248  A    between atoms: _604  and  _605
REMARK  249  A    between atoms: _605  and  _606
REMARK  250  A    between atoms: _610  and  _612
REMARK  251  A    between atoms: _612  and  _613
REMARK  252  A    between atoms: _612  and  _615
REMARK  253  A    between atoms: _615  and  _616
REMARK  254  A    between atoms: _621  and  _623
REMARK  255  A    between atoms: _623  and  _624
REMARK  256  A    between atoms: _623  and  _626
REMARK  257  A    between atoms: _626  and  _627
REMARK  258  A    between atoms: _627  and  _628
REMARK  259  A    between atoms: _628  and  _629
REMARK  260  A    between atoms: _629  and  _630
REMARK  261  A    between atoms: _634  and  _636
REMARK  262  A    between atoms: _636  and  _637
REMARK  263  A    between atoms: _636  and  _639
REMARK  264  A    between atoms: _639  and  _640
REMARK  265  A    between atoms: _650  and  _652
REMARK  266  A    between atoms: _652  and  _653
REMARK  267  A    between atoms: _656  and  _658
REMARK  268  A    between atoms: _658  and  _659
REMARK  269  A    between atoms: _661  and  _663
REMARK  270  A    between atoms: _663  and  _664
REMARK  271  A    between atoms: _667  and  _669
REMARK  272  A    between atoms: _669  and  _670
REMARK  273  A    between atoms: _673  and  _675
REMARK  274  A    between atoms: _675  and  _676
REMARK  275  A    between atoms: _675  and  _678
REMARK  276  A    between atoms: _678  and  _679
REMARK  277  A    between atoms: _684  and  _685
REMARK  278  A    between atoms: _687  and  _689
REMARK  279  A    between atoms: _689  and  _690
REMARK  280  A    between atoms: _689  and  _692
REMARK  281  A    between atoms: _692  and  _693
REMARK  282  A    between atoms: _698  and  _699
REMARK  283  A    between atoms: _701  and  _703
REMARK  284  A    between atoms: _703  and  _704
REMARK  285  A    between atoms: _703  and  _706
REMARK  286  A    between atoms: _706  and  _707
REMARK  287  A    between atoms: _712  and  _713
REMARK  288  A    between atoms: _715  and  _717
REMARK  289  A    between atoms: _717  and  _718
REMARK  290  A    between atoms: _717  and  _720
REMARK  291  A    between atoms: _720  and  _721
REMARK  292  A    between atoms: _724  and  _726
REMARK  293  A    between atoms: _726  and  _727
REMARK  294  A    between atoms: _729  and  _731
REMARK  295  A    between atoms: _731  and  _732
REMARK  296  A    between atoms: _731  and  _734
REMARK  297  A    between atoms: _734  and  _735
REMARK  298  A    between atoms: _738  and  _740
REMARK  299  A    between atoms: _740  and  _741
REMARK  300  A    between atoms: _740  and  _743
REMARK  301  A    between atoms: _743  and  _744
REMARK  302  A    between atoms: _745  and  _747
REMARK  303  A    between atoms: _747  and  _748
REMARK  304  A    between atoms: _747  and  _750
REMARK  305  A    between atoms: _753  and  _755
REMARK  306  A    between atoms: _755  and  _756
REMARK  307  A    between atoms: _755  and  _758
REMARK  308  A    between atoms: _758  and  _759
REMARK  309  A    between atoms: _759  and  _760
REMARK  310  A    between atoms: _763  and  _765
REMARK  311  A    between atoms: _765  and  _766
REMARK  312  A    between atoms: _765  and  _768
REMARK  313  A    between atoms: _768  and  _769
REMARK  314  A    between atoms: _779  and  _781
REMARK  315  A    between atoms: _781  and  _782
REMARK  316  A    between atoms: _781  and  _784
REMARK  317  A    between atoms: _784  and  _785
REMARK  318  A    between atoms: _788  and  _790
REMARK  319  A    between atoms: _790  and  _791
REMARK  320  A    between atoms: _790  and  _793
REMARK  321  A    between atoms: _793  and  _794
REMARK  322  A    between atoms: _799  and  _800
REMARK                            x       y       z     vdW  Elec       q    Type
REMARK                         _______ _______ _______ _____ _____    ______ ____
ROOT
ATOM      1  CG  TYR A   1      41.146  54.643   7.122  0.00  0.00    -0.020 A 
ATOM      2  CD2 TYR A   1      42.182  53.710   7.184  0.00  0.00    -0.001 A 
ATOM      3  CE2 TYR A   1      42.820  53.252   6.009  0.00  0.00    +0.036 A 
ATOM      4  CZ  TYR A   1      42.409  53.734   4.770  0.00  0.00    +0.134 A 
ATOM      5  CE1 TYR A   1      41.379  54.658   4.693  0.00  0.00    +0.036 A 
ATOM      6  CD1 TYR A   1      40.754  55.105   5.867  0.00  0.00    -0.001 A 
ENDROOT
BRANCH   4   7
ATOM      7  OH  TYR A   1      43.030  53.298   3.609  0.00  0.00    -0.506 OA
ATOM      8  HH  TYR A   1      42.361  52.867   3.020  0.00  0.00    +0.292 HD
ENDBRANCH   4   7
BRANCH   1   9
ATOM      9  CB  TYR A   1      40.464  55.145   8.385  0.00  0.00    +0.051 C 
BRANCH   9  10
ATOM     10  CA  TYR A   1      39.442  54.162   8.972  0.00  0.00    +0.137 C 
BRANCH  10  11
ATOM     11  N   TYR A   1      38.170  54.823   9.216  0.00  0.00    -0.239 NA
ATOM     12  H   TYR A   1      38.110  55.860   9.172  0.00  0.00    +0.142 HD
ENDBRANCH  10  11
BRANCH  10  13
ATOM     13  C   TYR A   1      39.846  53.732  10.387  0.00  0.00    +0.224 C 
ATOM     14  O   TYR A   1      39.710  54.513  11.339  0.00  0.00    -0.287 OA
ENDBRANCH  10  13
ENDBRANCH   9  10
ENDBRANCH   1   9
TORSDOF 5
REMARK  Name = ../refined-set-2016/1fzk/1fzk_pocket.pdb
REMARK  322 active torsions:
REMARK  status: ('A' for Active; 'I' for Inactive)
REMARK    1  A    between atoms: _1  and  _3
REMARK    2  A    between atoms: _3  and  _4
REMARK    3  A    between atoms: _3  and  _6
REMARK    4  A    between atoms: _6  and  _7
REMARK    5  A    between atoms: _10  and  _12
REMARK    6  A    between atoms: _12  and  _13
REMARK    7  A    between atoms: _12  and  _15
REMARK    8  A    between atoms: _15  and  _16
REMARK    9  A    between atoms: _16  and  _17
REMARK   10  A    between atoms: _17  and  _18
REMARK   11  A    between atoms: _27  and  _29
REMARK   12  A    between atoms: _29  and  _30
REMARK   13  A    between atoms: _29  and  _32
REMARK   14  A    between atoms: _32  and  _33
REMARK   15  A    between atoms: _38  and  _39
REMARK   16  A    between atoms: _41  and  _43
REMARK   17  A    between atoms: _43  and  _44
REMARK   18  A    between atoms: _43  and  _46
REMARK   19  A    between atoms: _46  and  _47
REMARK   20  A    between atoms: _53  and  _55
REMARK   21  A    between atoms: _55  and  _56
REMARK   22  A    between atoms: _55  and  _58
REMARK   23  A    between atoms: _61  and  _63
REMARK   24  A    between atoms: _63  and  _64
REMARK   25  A    between atoms: _63  and  _66
REMARK   26  A    between atoms: _66  and  _67
REMARK   27  A    between atoms: _70  and  _72
REMARK   28  A    between atoms: _72  and  _73
REMARK   29  A    between atoms: _72  and  _75
REMARK   30  A    between atoms: _75  and  _76
REMARK   31  A    between atoms: _81  and  _82
REMARK   32  A    between atoms: _84  and  _86
REMARK   33  A    between atoms: _86  and  _87
REMARK   34  A    between atoms: _86  and  _89
REMARK   35  A    between atoms: _89  and  _90
REMARK   36  A    between atoms: _90  and  _91
REMARK   37  A    between atoms: _93  and  _95
REMARK   38  A    between atoms: _95  and  _96
REMARK   39  A    between atoms: _95  and  _98
REMARK   40  A    between atoms: _98  and  _99
REMARK   41  A    between atoms: _99  and  _100
REMARK   42  A    between atoms: _103  and  _105
REMARK   43  A    between atoms: _105  and  _106
REMARK   44  A    between atoms: _105  and  _108
REMARK   45  A    between atoms: _111  and  _113
REMARK   46  A    between atoms: _113  and  _114
REMARK   47  A    between atoms: _116  and  _118
REMARK   48  A    between atoms: _118  and  _119
REMARK   49  A    between atoms: _118  and  _121
REMARK   50  A    between atoms: _124  and  _126
REMARK   51  A    between atoms: _126  and  _127
REMARK   52  A    between atoms: _126  and  _129
REMARK   53  A    between atoms: _129  and  _130
REMARK   54  A    between atoms: _136  and  _138
REMARK   55  A    between atoms: _138  and  _139
REMARK   56  A    between atoms: _138  and  _141
REMARK   57  A    between atoms: _144  and  _146
REMARK   58  A    between atoms: _146  and  _147
REMARK   59  A    between atoms: _146  and  _149
REMARK   60  A    between atoms: _149  and  _150
REMARK   61  A    between atoms: _155  and  _156
REMARK   62  A    between atoms: _158  and  _160
REMARK   63  A    between atoms: _160  and  _161
REMARK   64  A    between atoms: _160  and  _163
REMARK   65  A    between atoms: _163  and  _164
REMARK   66  A    between atoms: _164  and  _165
REMARK   67  A    between atoms: _167  and  _169
REMARK   68  A    between atoms: _169  and  _170
REMARK   69  A    between atoms: _169  and  _172
REMARK   70  A    between atoms: _172  and  _173
REMARK   71  A    between atoms: _173  and  _174
REMARK   72  A    between atoms: _177  and  _179
REMARK   73  A    between atoms: _179  and  _180
REMARK   74  A    between atoms: _179  and  _182
REMARK   75  A    between atoms: _182  and  _183
REMARK   76  A    between atoms: _183  and  _184
REMARK   77  A    between atoms: _187  and  _189
REMARK   78  A    between atoms: _189  and  _190
REMARK   79  A    between atoms: _189  and  _192
REMARK   80  A    between atoms: _192  and  _193
REMARK   81  A    between atoms: _198  and  _199
REMARK   82  A    between atoms: _201  and  _203
REMARK   83  A    between atoms: _203  and  _204
REMARK   84  A    between atoms: _203  and  _206
REMARK   85  A    between atoms: _206  and  _207
REMARK   86  A    between atoms: _207  and  _208
REMARK   87  A    between atoms: _208  and  _209
REMARK   88  A    between atoms: _218  and  _220
REMARK   89  A    between atoms: _220  and  _221
REMARK   90  A    between atoms: _220  and  _223
REMARK   91  A    between atoms: _223  and  _224
REMARK   92  A    between atoms: _224  and  _225
REMARK   93  A    between atoms: _228  and  _230
REMARK   94  A    between atoms: _230  and  _231
REMARK   95  A    between atoms: _230  and  _233
REMARK   96  A    between atoms: _233  and  _234
REMARK   97  A    between atoms: _234  and  _235
REMARK   98  A    between atoms: _240  and  _242
REMARK   99  A    between atoms: _242  and  _243
REMARK  100  A    between atoms: _242  and  _245
REMARK  101  A    between atoms: _245  and  _246
REMARK  102  A    between atoms: _246  and  _247
REMARK  103  A    between atoms: _247  and  _248
REMARK  104  A    between atoms: _248  and  _249
REMARK  105  A    between atoms: _253  and  _255
REMARK  106  A    between atoms: _255  and  _256
REMARK  107  A    between atoms: _259  and  _261
REMARK  108  A    between atoms: _261  and  _262
REMARK  109  A    between atoms: _264  and  _266
REMARK  110  A    between atoms: _266  and  _267
REMARK  111  A    between atoms: _266  and  _269
REMARK  112  A    between atoms: _269  and  _270
REMARK  113  A    between atoms: _275  and  _277
REMARK  114  A    between atoms: _277  and  _278
REMARK  115  A    between atoms: _277  and  _280
REMARK  116  A    between atoms: _280  and  _281
REMARK  117  A    between atoms: _281  and  _282
REMARK  118  A    between atoms: _285  and  _287
REMARK  119  A    between atoms: _287  and  _288
REMARK  120  A    between atoms: _287  and  _290
REMARK  121  A    between atoms: _290  and  _291
REMARK  122  A    between atoms: _291  and  _292
REMARK  123  A    between atoms: _297  and  _299
REMARK  124  A    between atoms: _299  and  _300
REMARK  125  A    between atoms: _299  and  _302
REMARK  126  A    between atoms: _302  and  _303
REMARK  127  A    between atoms: _305  and  _307
REMARK  128  A    between atoms: _307  and  _308
REMARK  129  A    between atoms: _307  and  _310
REMARK  130  A    between atoms: _310  and  _311
REMARK  131  A    between atoms: _317  and  _319
REMARK  132  A    between atoms: _319  and  _320
REMARK  133  A    between atoms: _319  and  _322
REMARK  134  A    between atoms: _325  and  _327
REMARK  135  A    between atoms: _327  and  _328
REMARK  136  A    between atoms: _327  and  _330
REMARK  137  A    between atoms: _330  and  _331
REMARK  138  A    between atoms: _334  and  _336
REMARK  139  A    between atoms: _336  and  _337
REMARK  140  A    between atoms: _336  and  _339
REMARK  141  A    between atoms: _339  and  _340
REMARK  142  A    between atoms: _343  and  _345
REMARK  143  A    between atoms: _345  and  _346
REMARK  144  A    between atoms: _345  and  _348
REMARK  145  A    between atoms: _348  and  _349
REMARK  146  A    between atoms: _352  and  _354
REMARK  147  A    between atoms: _354  and  _355
REMARK  148  A    between atoms: _354  and  _357
REMARK  149  A    between atoms: _357  and  _358
REMARK  150  A    between atoms: _361  and  _363
REMARK  151  A    between atoms: _363  and  _364
REMARK  152  A    between atoms: _363  and  _366
REMARK  153  A    between atoms: _366  and  _367
REMARK  154  A    between atoms: _372  and  _373
REMARK  155  A    between atoms: _375  and  _377
REMARK  156  A    between atoms: _377  and  _378
REMARK  157  A    between atoms: _377  and  _380
REMARK  158  A    between atoms: _380  and  _381
REMARK  159  A    between atoms: _386  and  _387
REMARK  160  A    between atoms: _389  and  _391
REMARK  161  A    between atoms: _391  and  _392
REMARK  162  A    between atoms: _391  and  _394
REMARK  163  A    between atoms: _394  and  _395
REMARK  164  A    between atoms: _398  and  _400
REMARK  165  A    between atoms: _400  and  _401
REMARK  166  A    between atoms: _400  and  _403
REMARK  167  A    between atoms: _403  and  _404
REMARK  168  A    between atoms: _404  and  _405
REMARK  169  A    between atoms: _410  and  _412
REMARK  170  A    between atoms: _412  and  _413
REMARK  171  A    between atoms: _412  and  _415
REMARK  172  A    between atoms: _418  and  _420
REMARK  173  A    between atoms: _420  and  _421
REMARK  174  A    between atoms: _420  and  _423
REMARK  175  A    between atoms: _423  and  _424
REMARK  176  A    between atoms: _427  and  _429
REMARK  177  A    between atoms: _429  and  _430
REMARK  178  A    between atoms: _429  and  _432
REMARK  179  A    between atoms: _432  and  _433
REMARK  180  A    between atoms: _435  and  _437
REMARK  181  A    between atoms: _437  and  _438
REMARK  182  A    between atoms: _440  and  _442
REMARK  183  A    between atoms: _442  and  _443
REMARK  184  A    between atoms: _442  and  _445
REMARK  185  A    between atoms: _445  and  _446
REMARK  186  A    between atoms: _446  and  _744
REMARK  187  A    between atoms: _447  and  _449
REMARK  188  A    between atoms: _449  and  _450
REMARK  189  A    between atoms: _449  and  _452
REMARK  190  A    between atoms: _452  and  _453
REMARK  191  A    between atoms: _458  and  _459
REMARK  192  A    between atoms: _461  and  _463
REMARK  193  A    between atoms: _463  and  _464
REMARK  194  A    between atoms: _463  and  _466
REMARK  195  A    between atoms: _466  and  _467
REMARK  196  A    between atoms: _467  and  _468
REMARK  197  A    between atoms: _473  and  _475
REMARK  198  A    between atoms: _475  and  _476
REMARK  199  A    between atoms: _475  and  _478
REMARK  200  A    between atoms: _478  and  _479
REMARK  201  A    between atoms: _479  and  _480
REMARK  202  A    between atoms: _485  and  _487
REMARK  203  A    between atoms: _487  and  _488
REMARK  204  A    between atoms: _487  and  _490
REMARK  205  A    between atoms: _490  and  _491
REMARK  206  A    between atoms: _496  and  _497
REMARK  207  A    between atoms: _499  and  _501
REMARK  208  A    between atoms: _501  and  _502
REMARK  209  A    between atoms: _505  and  _507
REMARK  210  A    between atoms: _507  and  _508
REMARK  211  A    between atoms: _507  and  _510
REMARK  212  A    between atoms: _510  and  _511
REMARK  213  A    between atoms: _516  and  _517
REMARK  214  A    between atoms: _519  and  _521
REMARK  215  A    between atoms: _521  and  _522
REMARK  216  A    between atoms: _521  and  _524
REMARK  217  A    between atoms: _524  and  _525
REMARK  218  A    between atoms: _530  and  _531
REMARK  219  A    between atoms: _533  and  _535
REMARK  220  A    between atoms: _535  and  _536
REMARK  221  A    between atoms: _535  and  _538
REMARK  222  A    between atoms: _538  and  _539
REMARK  223  A    between atoms: _542  and  _544
REMARK  224  A    between atoms: _544  and  _545
REMARK  225  A    between atoms: _544  and  _547
REMARK  226  A    between atoms: _547  and  _548
REMARK  227  A    between atoms: _558  and  _560
REMARK  228  A    between atoms: _560  and  _561
REMARK  229  A    between atoms: _564  and  _566
REMARK  230  A    between atoms: _566  and  _567
REMARK  231  A    between atoms: _570  and  _572
REMARK  232  A    between atoms: _572  and  _573
REMARK  233  A    between atoms: _572  and  _575
REMARK  234  A    between atoms: _575  and  _576
REMARK  235  A    between atoms: _579  and  _581
REMARK  236  A    between atoms: _581  and  _582
REMARK  237  A    between atoms: _581  and  _584
REMARK  238  A    between atoms: _584  and  _585
REMARK  239  A    between atoms: _588  and  _590
REMARK  240  A    between atoms: _590  and  _591
REMARK  241  A    between atoms: _590  and  _593
REMARK  242  A    between atoms: _593  and  _594
REMARK  243  A    between atoms: _597  and  _599
REMARK  244  A    between atoms: _599  and  _600
REMARK  245  A    between atoms: _599  and  _602
REMARK  246  A    between atoms: _602  and  _603
REMARK  247  A    between atoms: _603  and  _604
REMARK  248  A    between atoms: _604  and  _605
REMARK  249  A    between atoms: _605  and  _606
REMARK  250  A    between atoms: _610  and  _612
REMARK  251  A    between atoms: _612  and  _613
REMARK  252  A    between atoms: _612  and  _615
REMARK  253  A    between atoms: _615  and  _616
REMARK  254  A    between atoms: _621  and  _623
REMARK  255  A    between atoms: _623  and  _624
REMARK  256  A    between atoms: _623  and  _626
REMARK  257  A    between atoms: _626  and  _627
REMARK  258  A    between atoms: _627  and  _628
REMARK  259  A    between atoms: _628  and  _629
REMARK  260  A    between atoms: _629  and  _630
REMARK  261  A    between atoms: _634  and  _636
REMARK  262  A    between atoms: _636  and  _637
REMARK  263  A    between atoms: _636  and  _639
REMARK  264  A    between atoms: _639  and  _640
REMARK  265  A    between atoms: _650  and  _652
REMARK  266  A    between atoms: _652  and  _653
REMARK  267  A    between atoms: _656  and  _658
REMARK  268  A    between atoms: _658  and  _659
REMARK  269  A    between atoms: _661  and  _663
REMARK  270  A    between atoms: _663  and  _664
REMARK  271  A    between atoms: _667  and  _669
REMARK  272  A    between atoms: _669  and  _670
REMARK  273  A    between atoms: _673  and  _675
REMARK  274  A    between atoms: _675  and  _676
REMARK  275  A    between atoms: _675  and  _678
REMARK  276  A    between atoms: _678  and  _679
REMARK  277  A    between atoms: _684  and  _685
REMARK  278  A    between atoms: _687  and  _689
REMARK  279  A    between atoms: _689  and  _690
REMARK  280  A    between atoms: _689  and  _692
REMARK  281  A    between atoms: _692  and  _693
REMARK  282  A    between atoms: _698  and  _699
REMARK  283  A    between atoms: _701  and  _703
REMARK  284  A    between atoms: _703  and  _704
REMARK  285  A    between atoms: _703  and  _706
REMARK  286  A    between atoms: _706  and  _707
REMARK  287  A    between atoms: _712  and  _713
REMARK  288  A    between atoms: _715  and  _717
REMARK  289  A    between atoms: _717  and  _718
REMARK  290  A    between atoms: _717  and  _720
REMARK  291  A    between atoms: _720  and  _721
REMARK  292  A    between atoms: _724  and  _726
REMARK  293  A    between atoms: _726  and  _727
REMARK  294  A    between atoms: _729  and  _731
REMARK  295  A    between atoms: _731  and  _732
REMARK  296  A    between atoms: _731  and  _734
REMARK  297  A    between atoms: _734  and  _735
REMARK  298  A    between atoms: _738  and  _740
REMARK  299  A    between atoms: _740  and  _741
REMARK  300  A    between atoms: _740  and  _743
REMARK  301  A    between atoms: _743  and  _744
REMARK  302  A    between atoms: _745  and  _747
REMARK  303  A    between atoms: _747  and  _748
REMARK  304  A    between atoms: _747  and  _750
REMARK  305  A    between atoms: _753  and  _755
REMARK  306  A    between atoms: _755  and  _756
REMARK  307  A    between atoms: _755  and  _758
REMARK  308  A    between atoms: _758  and  _759
REMARK  309  A    between atoms: _759  and  _760
REMARK  310  A    between atoms: _763  and  _765
REMARK  311  A    between atoms: _765  and  _766
REMARK  312  A    between atoms: _765  and  _768
REMARK  313  A    between atoms: _768  and  _769
REMARK  314  A    between atoms: _779  and  _781
REMARK  315  A    between atoms: _781  and  _782
REMARK  316  A    between atoms: _781  and  _784
REMARK  317  A    between atoms: _784  and  _785
REMARK  318  A    between atoms: _788  and  _790
REMARK  319  A    between atoms: _790  and  _791
REMARK  320  A    between atoms: _790  and  _793
REMARK  321  A    between atoms: _793  and  _794
REMARK  322  A    between atoms: _799  and  _800
REMARK                            x       y       z     vdW  Elec       q    Type
REMARK                         _______ _______ _______ _____ _____    ______ ____
ROOT
ATOM      1  CA  MET A   1      49.277  52.721  15.140  0.00  0.00    +0.134 C 
ENDROOT
BRANCH   1   2
ATOM      2  N   MET A   1      49.999  51.590  15.715  0.00  0.00    -0.239 NA
ATOM      3  H   MET A   1      49.639  50.622  15.591  0.00  0.00    +0.142 HD
ENDBRANCH   1   2
BRANCH   1   4
ATOM      4  C   MET A   1      48.550  53.528  16.218  0.00  0.00    +0.224 C 
ATOM      5  O   MET A   1      47.909  54.541  15.928  0.00  0.00    -0.287 OA
ENDBRANCH   1   4
BRANCH   1   6
ATOM      6  CB  MET A   1      48.307  52.262  14.042  0.00  0.00    +0.037 C 
BRANCH   6   7
ATOM      7  CG  MET A   1      49.003  51.955  12.698  0.00  0.00    +0.059 C 
BRANCH   7   8
ATOM      8  SD  MET A   1      49.914  53.387  11.986  0.00  0.00    -0.139 S 
ATOM      9  CE  MET A   1      48.521  54.431  11.473  0.00  0.00    +0.069 C 
ENDBRANCH   7   8
ENDBRANCH   6   7
ENDBRANCH   1   6
TORSDOF 5
REMARK  Name = ../refined-set-2016/1fzk/1fzk_pocket.pdb
REMARK  322 active torsions:
REMARK  status: ('A' for Active; 'I' for Inactive)
REMARK    1  A    between atoms: _1  and  _3
REMARK    2  A    between atoms: _3  and  _4
REMARK    3  A    between atoms: _3  and  _6
REMARK    4  A    between atoms: _6  and  _7
REMARK    5  A    between atoms: _10  and  _12
REMARK    6  A    between atoms: _12  and  _13
REMARK    7  A    between atoms: _12  and  _15
REMARK    8  A    between atoms: _15  and  _16
REMARK    9  A    between atoms: _16  and  _17
REMARK   10  A    between atoms: _17  and  _18
REMARK   11  A    between atoms: _27  and  _29
REMARK   12  A    between atoms: _29  and  _30
REMARK   13  A    between atoms: _29  and  _32
REMARK   14  A    between atoms: _32  and  _33
REMARK   15  A    between atoms: _38  and  _39
REMARK   16  A    between atoms: _41  and  _43
REMARK   17  A    between atoms: _43  and  _44
REMARK   18  A    between atoms: _43  and  _46
REMARK   19  A    between atoms: _46  and  _47
REMARK   20  A    between atoms: _53  and  _55
REMARK   21  A    between atoms: _55  and  _56
REMARK   22  A    between atoms: _55  and  _58
REMARK   23  A    between atoms: _61  and  _63
REMARK   24  A    between atoms: _63  and  _64
REMARK   25  A    between atoms: _63  and  _66
REMARK   26  A    between atoms: _66  and  _67
REMARK   27  A    between atoms: _70  and  _72
REMARK   28  A    between atoms: _72  and  _73
REMARK   29  A    between atoms: _72  and  _75
REMARK   30  A    between atoms: _75  and  _76
REMARK   31  A    between atoms: _81  and  _82
REMARK   32  A    between atoms: _84  and  _86
REMARK   33  A    between atoms: _86  and  _87
REMARK   34  A    between atoms: _86  and  _89
REMARK   35  A    between atoms: _89  and  _90
REMARK   36  A    between atoms: _90  and  _91
REMARK   37  A    between atoms: _93  and  _95
REMARK   38  A    between atoms: _95  and  _96
REMARK   39  A    between atoms: _95  and  _98
REMARK   40  A    between atoms: _98  and  _99
REMARK   41  A    between atoms: _99  and  _100
REMARK   42  A    between atoms: _103  and  _105
REMARK   43  A    between atoms: _105  and  _106
REMARK   44  A    between atoms: _105  and  _108
REMARK   45  A    between atoms: _111  and  _113
REMARK   46  A    between atoms: _113  and  _114
REMARK   47  A    between atoms: _116  and  _118
REMARK   48  A    between atoms: _118  and  _119
REMARK   49  A    between atoms: _118  and  _121
REMARK   50  A    between atoms: _124  and  _126
REMARK   51  A    between atoms: _126  and  _127
REMARK   52  A    between atoms: _126  and  _129
REMARK   53  A    between atoms: _129  and  _130
REMARK   54  A    between atoms: _136  and  _138
REMARK   55  A    between atoms: _138  and  _139
REMARK   56  A    between atoms: _138  and  _141
REMARK   57  A    between atoms: _144  and  _146
REMARK   58  A    between atoms: _146  and  _147
REMARK   59  A    between atoms: _146  and  _149
REMARK   60  A    between atoms: _149  and  _150
REMARK   61  A    between atoms: _155  and  _156
REMARK   62  A    between atoms: _158  and  _160
REMARK   63  A    between atoms: _160  and  _161
REMARK   64  A    between atoms: _160  and  _163
REMARK   65  A    between atoms: _163  and  _164
REMARK   66  A    between atoms: _164  and  _165
REMARK   67  A    between atoms: _167  and  _169
REMARK   68  A    between atoms: _169  and  _170
REMARK   69  A    between atoms: _169  and  _172
REMARK   70  A    between atoms: _172  and  _173
REMARK   71  A    between atoms: _173  and  _174
REMARK   72  A    between atoms: _177  and  _179
REMARK   73  A    between atoms: _179  and  _180
REMARK   74  A    between atoms: _179  and  _182
REMARK   75  A    between atoms: _182  and  _183
REMARK   76  A    between atoms: _183  and  _184
REMARK   77  A    between atoms: _187  and  _189
REMARK   78  A    between atoms: _189  and  _190
REMARK   79  A    between atoms: _189  and  _192
REMARK   80  A    between atoms: _192  and  _193
REMARK   81  A    between atoms: _198  and  _199
REMARK   82  A    between atoms: _201  and  _203
REMARK   83  A    between atoms: _203  and  _204
REMARK   84  A    between atoms: _203  and  _206
REMARK   85  A    between atoms: _206  and  _207
REMARK   86  A    between atoms: _207  and  _208
REMARK   87  A    between atoms: _208  and  _209
REMARK   88  A    between atoms: _218  and  _220
REMARK   89  A    between atoms: _220  and  _221
REMARK   90  A    between atoms: _220  and  _223
REMARK   91  A    between atoms: _223  and  _224
REMARK   92  A    between atoms: _224  and  _225
REMARK   93  A    between atoms: _228  and  _230
REMARK   94  A    between atoms: _230  and  _231
REMARK   95  A    between atoms: _230  and  _233
REMARK   96  A    between atoms: _233  and  _234
REMARK   97  A    between atoms: _234  and  _235
REMARK   98  A    between atoms: _240  and  _242
REMARK   99  A    between atoms: _242  and  _243
REMARK  100  A    between atoms: _242  and  _245
REMARK  101  A    between atoms: _245  and  _246
REMARK  102  A    between atoms: _246  and  _247
REMARK  103  A    between atoms: _247  and  _248
REMARK  104  A    between atoms: _248  and  _249
REMARK  105  A    between atoms: _253  and  _255
REMARK  106  A    between atoms: _255  and  _256
REMARK  107  A    between atoms: _259  and  _261
REMARK  108  A    between atoms: _261  and  _262
REMARK  109  A    between atoms: _264  and  _266
REMARK  110  A    between atoms: _266  and  _267
REMARK  111  A    between atoms: _266  and  _269
REMARK  112  A    between atoms: _269  and  _270
REMARK  113  A    between atoms: _275  and  _277
REMARK  114  A    between atoms: _277  and  _278
REMARK  115  A    between atoms: _277  and  _280
REMARK  116  A    between atoms: _280  and  _281
REMARK  117  A    between atoms: _281  and  _282
REMARK  118  A    between atoms: _285  and  _287
REMARK  119  A    between atoms: _287  and  _288
REMARK  120  A    between atoms: _287  and  _290
REMARK  121  A    between atoms: _290  and  _291
REMARK  122  A    between atoms: _291  and  _292
REMARK  123  A    between atoms: _297  and  _299
REMARK  124  A    between atoms: _299  and  _300
REMARK  125  A    between atoms: _299  and  _302
REMARK  126  A    between atoms: _302  and  _303
REMARK  127  A    between atoms: _305  and  _307
REMARK  128  A    between atoms: _307  and  _308
REMARK  129  A    between atoms: _307  and  _310
REMARK  130  A    between atoms: _310  and  _311
REMARK  131  A    between atoms: _317  and  _319
REMARK  132  A    between atoms: _319  and  _320
REMARK  133  A    between atoms: _319  and  _322
REMARK  134  A    between atoms: _325  and  _327
REMARK  135  A    between atoms: _327  and  _328
REMARK  136  A    between atoms: _327  and  _330
REMARK  137  A    between atoms: _330  and  _331
REMARK  138  A    between atoms: _334  and  _336
REMARK  139  A    between atoms: _336  and  _337
REMARK  140  A    between atoms: _336  and  _339
REMARK  141  A    between atoms: _339  and  _340
REMARK  142  A    between atoms: _343  and  _345
REMARK  143  A    between atoms: _345  and  _346
REMARK  144  A    between atoms: _345  and  _348
REMARK  145  A    between atoms: _348  and  _349
REMARK  146  A    between atoms: _352  and  _354
REMARK  147  A    between atoms: _354  and  _355
REMARK  148  A    between atoms: _354  and  _357
REMARK  149  A    between atoms: _357  and  _358
REMARK  150  A    between atoms: _361  and  _363
REMARK  151  A    between atoms: _363  and  _364
REMARK  152  A    between atoms: _363  and  _366
REMARK  153  A    between atoms: _366  and  _367
REMARK  154  A    between atoms: _372  and  _373
REMARK  155  A    between atoms: _375  and  _377
REMARK  156  A    between atoms: _377  and  _378
REMARK  157  A    between atoms: _377  and  _380
REMARK  158  A    between atoms: _380  and  _381
REMARK  159  A    between atoms: _386  and  _387
REMARK  160  A    between atoms: _389  and  _391
REMARK  161  A    between atoms: _391  and  _392
REMARK  162  A    between atoms: _391  and  _394
REMARK  163  A    between atoms: _394  and  _395
REMARK  164  A    between atoms: _398  and  _400
REMARK  165  A    between atoms: _400  and  _401
REMARK  166  A    between atoms: _400  and  _403
REMARK  167  A    between atoms: _403  and  _404
REMARK  168  A    between atoms: _404  and  _405
REMARK  169  A    between atoms: _410  and  _412
REMARK  170  A    between atoms: _412  and  _413
REMARK  171  A    between atoms: _412  and  _415
REMARK  172  A    between atoms: _418  and  _420
REMARK  173  A    between atoms: _420  and  _421
REMARK  174  A    between atoms: _420  and  _423
REMARK  175  A    between atoms: _423  and  _424
REMARK  176  A    between atoms: _427  and  _429
REMARK  177  A    between atoms: _429  and  _430
REMARK  178  A    between atoms: _429  and  _432
REMARK  179  A    between atoms: _432  and  _433
REMARK  180  A    between atoms: _435  and  _437
REMARK  181  A    between atoms: _437  and  _438
REMARK  182  A    between atoms: _440  and  _442
REMARK  183  A    between atoms: _442  and  _443
REMARK  184  A    between atoms: _442  and  _445
REMARK  185  A    between atoms: _445  and  _446
REMARK  186  A    between atoms: _446  and  _744
REMARK  187  A    between atoms: _447  and  _449
REMARK  188  A    between atoms: _449  and  _450
REMARK  189  A    between atoms: _449  and  _452
REMARK  190  A    between atoms: _452  and  _453
REMARK  191  A    between atoms: _458  and  _459
REMARK  192  A    between atoms: _461  and  _463
REMARK  193  A    between atoms: _463  and  _464
REMARK  194  A    between atoms: _463  and  _466
REMARK  195  A    between atoms: _466  and  _467
REMARK  196  A    between atoms: _467  and  _468
REMARK  197  A    between atoms: _473  and  _475
REMARK  198  A    between atoms: _475  and  _476
REMARK  199  A    between atoms: _475  and  _478
REMARK  200  A    between atoms: _478  and  _479
REMARK  201  A    between atoms: _479  and  _480
REMARK  202  A    between atoms: _485  and  _487
REMARK  203  A    between atoms: _487  and  _488
REMARK  204  A    between atoms: _487  and  _490
REMARK  205  A    between atoms: _490  and  _491
REMARK  206  A    between atoms: _496  and  _497
REMARK  207  A    between atoms: _499  and  _501
REMARK  208  A    between atoms: _501  and  _502
REMARK  209  A    between atoms: _505  and  _507
REMARK  210  A    between atoms: _507  and  _508
REMARK  211  A    between atoms: _507  and  _510
REMARK  212  A    between atoms: _510  and  _511
REMARK  213  A    between atoms: _516  and  _517
REMARK  214  A    between atoms: _519  and  _521
REMARK  215  A    between atoms: _521  and  _522
REMARK  216  A    between atoms: _521  and  _524
REMARK  217  A    between atoms: _524  and  _525
REMARK  218  A    between atoms: _530  and  _531
REMARK  219  A    between atoms: _533  and  _535
REMARK  220  A    between atoms: _535  and  _536
REMARK  221  A    between atoms: _535  and  _538
REMARK  222  A    between atoms: _538  and  _539
REMARK  223  A    between atoms: _542  and  _544
REMARK  224  A    between atoms: _544  and  _545
REMARK  225  A    between atoms: _544  and  _547
REMARK  226  A    between atoms: _547  and  _548
REMARK  227  A    between atoms: _558  and  _560
REMARK  228  A    between atoms: _560  and  _561
REMARK  229  A    between atoms: _564  and  _566
REMARK  230  A    between atoms: _566  and  _567
REMARK  231  A    between atoms: _570  and  _572
REMARK  232  A    between atoms: _572  and  _573
REMARK  233  A    between atoms: _572  and  _575
REMARK  234  A    between atoms: _575  and  _576
REMARK  235  A    between atoms: _579  and  _581
REMARK  236  A    between atoms: _581  and  _582
REMARK  237  A    between atoms: _581  and  _584
REMARK  238  A    between atoms: _584  and  _585
REMARK  239  A    between atoms: _588  and  _590
REMARK  240  A    between atoms: _590  and  _591
REMARK  241  A    between atoms: _590  and  _593
REMARK  242  A    between atoms: _593  and  _594
REMARK  243  A    between atoms: _597  and  _599
REMARK  244  A    between atoms: _599  and  _600
REMARK  245  A    between atoms: _599  and  _602
REMARK  246  A    between atoms: _602  and  _603
REMARK  247  A    between atoms: _603  and  _604
REMARK  248  A    between atoms: _604  and  _605
REMARK  249  A    between atoms: _605  and  _606
REMARK  250  A    between atoms: _610  and  _612
REMARK  251  A    between atoms: _612  and  _613
REMARK  252  A    between atoms: _612  and  _615
REMARK  253  A    between atoms: _615  and  _616
REMARK  254  A    between atoms: _621  and  _623
REMARK  255  A    between atoms: _623  and  _624
REMARK  256  A    between atoms: _623  and  _626
REMARK  257  A    between atoms: _626  and  _627
REMARK  258  A    between atoms: _627  and  _628
REMARK  259  A    between atoms: _628  and  _629
REMARK  260  A    between atoms: _629  and  _630
REMARK  261  A    between atoms: _634  and  _636
REMARK  262  A    between atoms: _636  and  _637
REMARK  263  A    between atoms: _636  and  _639
REMARK  264  A    between atoms: _639  and  _640
REMARK  265  A    between atoms: _650  and  _652
REMARK  266  A    between atoms: _652  and  _653
REMARK  267  A    between atoms: _656  and  _658
REMARK  268  A    between atoms: _658  and  _659
REMARK  269  A    between atoms: _661  and  _663
REMARK  270  A    between atoms: _663  and  _664
REMARK  271  A    between atoms: _667  and  _669
REMARK  272  A    between atoms: _669  and  _670
REMARK  273  A    between atoms: _673  and  _675
REMARK  274  A    between atoms: _675  and  _676
REMARK  275  A    between atoms: _675  and  _678
REMARK  276  A    between atoms: _678  and  _679
REMARK  277  A    between atoms: _684  and  _685
REMARK  278  A    between atoms: _687  and  _689
REMARK  279  A    between atoms: _689  and  _690
REMARK  280  A    between atoms: _689  and  _692
REMARK  281  A    between atoms: _692  and  _693
REMARK  282  A    between atoms: _698  and  _699
REMARK  283  A    between atoms: _701  and  _703
REMARK  284  A    between atoms: _703  and  _704
REMARK  285  A    between atoms: _703  and  _706
REMARK  286  A    between atoms: _706  and  _707
REMARK  287  A    between atoms: _712  and  _713
REMARK  288  A    between atoms: _715  and  _717
REMARK  289  A    between atoms: _717  and  _718
REMARK  290  A    between atoms: _717  and  _720
REMARK  291  A    between atoms: _720  and  _721
REMARK  292  A    between atoms: _724  and  _726
REMARK  293  A    between atoms: _726  and  _727
REMARK  294  A    between atoms: _729  and  _731
REMARK  295  A    between atoms: _731  and  _732
REMARK  296  A    between atoms: _731  and  _734
REMARK  297  A    between atoms: _734  and  _735
REMARK  298  A    between atoms: _738  and  _740
REMARK  299  A    between atoms: _740  and  _741
REMARK  300  A    between atoms: _740  and  _743
REMARK  301  A    between atoms: _743  and  _744
REMARK  302  A    between atoms: _745  and  _747
REMARK  303  A    between atoms: _747  and  _748
REMARK  304  A    between atoms: _747  and  _750
REMARK  305  A    between atoms: _753  and  _755
REMARK  306  A    between atoms: _755  and  _756
REMARK  307  A    between atoms: _755  and  _758
REMARK  308  A    between atoms: _758  and  _759
REMARK  309  A    between atoms: _759  and  _760
REMARK  310  A    between atoms: _763  and  _765
REMARK  311  A    between atoms: _765  and  _766
REMARK  312  A    between atoms: _765  and  _768
REMARK  313  A    between atoms: _768  and  _769
REMARK  314  A    between atoms: _779  and  _781
REMARK  315  A    between atoms: _781  and  _782
REMARK  316  A    between atoms: _781  and  _784
REMARK  317  A    between atoms: _784  and  _785
REMARK  318  A    between atoms: _788  and  _790
REMARK  319  A    between atoms: _790  and  _791
REMARK  320  A    between atoms: _790  and  _793
REMARK  321  A    between atoms: _793  and  _794
REMARK  322  A    between atoms: _799  and  _800
REMARK                            x       y       z     vdW  Elec       q    Type
REMARK                         _______ _______ _______ _____ _____    ______ ____
ROOT
ATOM      1  CA  GLU A   1      48.891  58.489  15.711  0.00  0.00    +0.134 C 
ENDROOT
BRANCH   1   2
ATOM      2  N   GLU A   1      49.402  57.383  16.519  0.00  0.00    -0.239 NA
ATOM      3  H   GLU A   1      48.984  56.436  16.421  0.00  0.00    +0.142 HD
ENDBRANCH   1   2
BRANCH   1   4
ATOM      4  C   GLU A   1      47.777  59.173  16.497  0.00  0.00    +0.224 C 
ATOM      5  O   GLU A   1      47.070  58.525  17.266  0.00  0.00    -0.287 OA
ENDBRANCH   1   4
BRANCH   1   6
ATOM      6  CB  GLU A   1      48.333  57.985  14.376  0.00  0.00    +0.037 C 
BRANCH   6   7
ATOM      7  CG  GLU A   1      49.364  57.384  13.425  0.00  0.00    +0.116 C 
BRANCH   7   8
ATOM      8  CD  GLU A   1      50.514  58.323  13.096  0.00  0.00    +0.365 C 
ATOM      9  OE2 GLU A   1      50.355  59.561  13.226  0.00  0.00    -0.246 OA
ATOM     10  OE1 GLU A   1      51.584  57.818  12.687  0.00  0.00    -0.246 OA
ENDBRANCH   7   8
ENDBRANCH   6   7
ENDBRANCH   1   6
TORSDOF 5
REMARK  Name = ../refined-set-2016/1fzk/1fzk_pocket.pdb
REMARK  322 active torsions:
REMARK  status: ('A' for Active; 'I' for Inactive)
REMARK    1  A    between atoms: _1  and  _3
REMARK    2  A    between atoms: _3  and  _4
REMARK    3  A    between atoms: _3  and  _6
REMARK    4  A    between atoms: _6  and  _7
REMARK    5  A    between atoms: _10  and  _12
REMARK    6  A    between atoms: _12  and  _13
REMARK    7  A    between atoms: _12  and  _15
REMARK    8  A    between atoms: _15  and  _16
REMARK    9  A    between atoms: _16  and  _17
REMARK   10  A    between atoms: _17  and  _18
REMARK   11  A    between atoms: _27  and  _29
REMARK   12  A    between atoms: _29  and  _30
REMARK   13  A    between atoms: _29  and  _32
REMARK   14  A    between atoms: _32  and  _33
REMARK   15  A    between atoms: _38  and  _39
REMARK   16  A    between atoms: _41  and  _43
REMARK   17  A    between atoms: _43  and  _44
REMARK   18  A    between atoms: _43  and  _46
REMARK   19  A    between atoms: _46  and  _47
REMARK   20  A    between atoms: _53  and  _55
REMARK   21  A    between atoms: _55  and  _56
REMARK   22  A    between atoms: _55  and  _58
REMARK   23  A    between atoms: _61  and  _63
REMARK   24  A    between atoms: _63  and  _64
REMARK   25  A    between atoms: _63  and  _66
REMARK   26  A    between atoms: _66  and  _67
REMARK   27  A    between atoms: _70  and  _72
REMARK   28  A    between atoms: _72  and  _73
REMARK   29  A    between atoms: _72  and  _75
REMARK   30  A    between atoms: _75  and  _76
REMARK   31  A    between atoms: _81  and  _82
REMARK   32  A    between atoms: _84  and  _86
REMARK   33  A    between atoms: _86  and  _87
REMARK   34  A    between atoms: _86  and  _89
REMARK   35  A    between atoms: _89  and  _90
REMARK   36  A    between atoms: _90  and  _91
REMARK   37  A    between atoms: _93  and  _95
REMARK   38  A    between atoms: _95  and  _96
REMARK   39  A    between atoms: _95  and  _98
REMARK   40  A    between atoms: _98  and  _99
REMARK   41  A    between atoms: _99  and  _100
REMARK   42  A    between atoms: _103  and  _105
REMARK   43  A    between atoms: _105  and  _106
REMARK   44  A    between atoms: _105  and  _108
REMARK   45  A    between atoms: _111  and  _113
REMARK   46  A    between atoms: _113  and  _114
REMARK   47  A    between atoms: _116  and  _118
REMARK   48  A    between atoms: _118  and  _119
REMARK   49  A    between atoms: _118  and  _121
REMARK   50  A    between atoms: _124  and  _126
REMARK   51  A    between atoms: _126  and  _127
REMARK   52  A    between atoms: _126  and  _129
REMARK   53  A    between atoms: _129  and  _130
REMARK   54  A    between atoms: _136  and  _138
REMARK   55  A    between atoms: _138  and  _139
REMARK   56  A    between atoms: _138  and  _141
REMARK   57  A    between atoms: _144  and  _146
REMARK   58  A    between atoms: _146  and  _147
REMARK   59  A    between atoms: _146  and  _149
REMARK   60  A    between atoms: _149  and  _150
REMARK   61  A    between atoms: _155  and  _156
REMARK   62  A    between atoms: _158  and  _160
REMARK   63  A    between atoms: _160  and  _161
REMARK   64  A    between atoms: _160  and  _163
REMARK   65  A    between atoms: _163  and  _164
REMARK   66  A    between atoms: _164  and  _165
REMARK   67  A    between atoms: _167  and  _169
REMARK   68  A    between atoms: _169  and  _170
REMARK   69  A    between atoms: _169  and  _172
REMARK   70  A    between atoms: _172  and  _173
REMARK   71  A    between atoms: _173  and  _174
REMARK   72  A    between atoms: _177  and  _179
REMARK   73  A    between atoms: _179  and  _180
REMARK   74  A    between atoms: _179  and  _182
REMARK   75  A    between atoms: _182  and  _183
REMARK   76  A    between atoms: _183  and  _184
REMARK   77  A    between atoms: _187  and  _189
REMARK   78  A    between atoms: _189  and  _190
REMARK   79  A    between atoms: _189  and  _192
REMARK   80  A    between atoms: _192  and  _193
REMARK   81  A    between atoms: _198  and  _199
REMARK   82  A    between atoms: _201  and  _203
REMARK   83  A    between atoms: _203  and  _204
REMARK   84  A    between atoms: _203  and  _206
REMARK   85  A    between atoms: _206  and  _207
REMARK   86  A    between atoms: _207  and  _208
REMARK   87  A    between atoms: _208  and  _209
REMARK   88  A    between atoms: _218  and  _220
REMARK   89  A    between atoms: _220  and  _221
REMARK   90  A    between atoms: _220  and  _223
REMARK   91  A    between atoms: _223  and  _224
REMARK   92  A    between atoms: _224  and  _225
REMARK   93  A    between atoms: _228  and  _230
REMARK   94  A    between atoms: _230  and  _231
REMARK   95  A    between atoms: _230  and  _233
REMARK   96  A    between atoms: _233  and  _234
REMARK   97  A    between atoms: _234  and  _235
REMARK   98  A    between atoms: _240  and  _242
REMARK   99  A    between atoms: _242  and  _243
REMARK  100  A    between atoms: _242  and  _245
REMARK  101  A    between atoms: _245  and  _246
REMARK  102  A    between atoms: _246  and  _247
REMARK  103  A    between atoms: _247  and  _248
REMARK  104  A    between atoms: _248  and  _249
REMARK  105  A    between atoms: _253  and  _255
REMARK  106  A    between atoms: _255  and  _256
REMARK  107  A    between atoms: _259  and  _261
REMARK  108  A    between atoms: _261  and  _262
REMARK  109  A    between atoms: _264  and  _266
REMARK  110  A    between atoms: _266  and  _267
REMARK  111  A    between atoms: _266  and  _269
REMARK  112  A    between atoms: _269  and  _270
REMARK  113  A    between atoms: _275  and  _277
REMARK  114  A    between atoms: _277  and  _278
REMARK  115  A    between atoms: _277  and  _280
REMARK  116  A    between atoms: _280  and  _281
REMARK  117  A    between atoms: _281  and  _282
REMARK  118  A    between atoms: _285  and  _287
REMARK  119  A    between atoms: _287  and  _288
REMARK  120  A    between atoms: _287  and  _290
REMARK  121  A    between atoms: _290  and  _291
REMARK  122  A    between atoms: _291  and  _292
REMARK  123  A    between atoms: _297  and  _299
REMARK  124  A    between atoms: _299  and  _300
REMARK  125  A    between atoms: _299  and  _302
REMARK  126  A    between atoms: _302  and  _303
REMARK  127  A    between atoms: _305  and  _307
REMARK  128  A    between atoms: _307  and  _308
REMARK  129  A    between atoms: _307  and  _310
REMARK  130  A    between atoms: _310  and  _311
REMARK  131  A    between atoms: _317  and  _319
REMARK  132  A    between atoms: _319  and  _320
REMARK  133  A    between atoms: _319  and  _322
REMARK  134  A    between atoms: _325  and  _327
REMARK  135  A    between atoms: _327  and  _328
REMARK  136  A    between atoms: _327  and  _330
REMARK  137  A    between atoms: _330  and  _331
REMARK  138  A    between atoms: _334  and  _336
REMARK  139  A    between atoms: _336  and  _337
REMARK  140  A    between atoms: _336  and  _339
REMARK  141  A    between atoms: _339  and  _340
REMARK  142  A    between atoms: _343  and  _345
REMARK  143  A    between atoms: _345  and  _346
REMARK  144  A    between atoms: _345  and  _348
REMARK  145  A    between atoms: _348  and  _349
REMARK  146  A    between atoms: _352  and  _354
REMARK  147  A    between atoms: _354  and  _355
REMARK  148  A    between atoms: _354  and  _357
REMARK  149  A    between atoms: _357  and  _358
REMARK  150  A    between atoms: _361  and  _363
REMARK  151  A    between atoms: _363  and  _364
REMARK  152  A    between atoms: _363  and  _366
REMARK  153  A    between atoms: _366  and  _367
REMARK  154  A    between atoms: _372  and  _373
REMARK  155  A    between atoms: _375  and  _377
REMARK  156  A    between atoms: _377  and  _378
REMARK  157  A    between atoms: _377  and  _380
REMARK  158  A    between atoms: _380  and  _381
REMARK  159  A    between atoms: _386  and  _387
REMARK  160  A    between atoms: _389  and  _391
REMARK  161  A    between atoms: _391  and  _392
REMARK  162  A    between atoms: _391  and  _394
REMARK  163  A    between atoms: _394  and  _395
REMARK  164  A    between atoms: _398  and  _400
REMARK  165  A    between atoms: _400  and  _401
REMARK  166  A    between atoms: _400  and  _403
REMARK  167  A    between atoms: _403  and  _404
REMARK  168  A    between atoms: _404  and  _405
REMARK  169  A    between atoms: _410  and  _412
REMARK  170  A    between atoms: _412  and  _413
REMARK  171  A    between atoms: _412  and  _415
REMARK  172  A    between atoms: _418  and  _420
REMARK  173  A    between atoms: _420  and  _421
REMARK  174  A    between atoms: _420  and  _423
REMARK  175  A    between atoms: _423  and  _424
REMARK  176  A    between atoms: _427  and  _429
REMARK  177  A    between atoms: _429  and  _430
REMARK  178  A    between atoms: _429  and  _432
REMARK  179  A    between atoms: _432  and  _433
REMARK  180  A    between atoms: _435  and  _437
REMARK  181  A    between atoms: _437  and  _438
REMARK  182  A    between atoms: _440  and  _442
REMARK  183  A    between atoms: _442  and  _443
REMARK  184  A    between atoms: _442  and  _445
REMARK  185  A    between atoms: _445  and  _446
REMARK  186  A    between atoms: _446  and  _744
REMARK  187  A    between atoms: _447  and  _449
REMARK  188  A    between atoms: _449  and  _450
REMARK  189  A    between atoms: _449  and  _452
REMARK  190  A    between atoms: _452  and  _453
REMARK  191  A    between atoms: _458  and  _459
REMARK  192  A    between atoms: _461  and  _463
REMARK  193  A    between atoms: _463  and  _464
REMARK  194  A    between atoms: _463  and  _466
REMARK  195  A    between atoms: _466  and  _467
REMARK  196  A    between atoms: _467  and  _468
REMARK  197  A    between atoms: _473  and  _475
REMARK  198  A    between atoms: _475  and  _476
REMARK  199  A    between atoms: _475  and  _478
REMARK  200  A    between atoms: _478  and  _479
REMARK  201  A    between atoms: _479  and  _480
REMARK  202  A    between atoms: _485  and  _487
REMARK  203  A    between atoms: _487  and  _488
REMARK  204  A    between atoms: _487  and  _490
REMARK  205  A    between atoms: _490  and  _491
REMARK  206  A    between atoms: _496  and  _497
REMARK  207  A    between atoms: _499  and  _501
REMARK  208  A    between atoms: _501  and  _502
REMARK  209  A    between atoms: _505  and  _507
REMARK  210  A    between atoms: _507  and  _508
REMARK  211  A    between atoms: _507  and  _510
REMARK  212  A    between atoms: _510  and  _511
REMARK  213  A    between atoms: _516  and  _517
REMARK  214  A    between atoms: _519  and  _521
REMARK  215  A    between atoms: _521  and  _522
REMARK  216  A    between atoms: _521  and  _524
REMARK  217  A    between atoms: _524  and  _525
REMARK  218  A    between atoms: _530  and  _531
REMARK  219  A    between atoms: _533  and  _535
REMARK  220  A    between atoms: _535  and  _536
REMARK  221  A    between atoms: _535  and  _538
REMARK  222  A    between atoms: _538  and  _539
REMARK  223  A    between atoms: _542  and  _544
REMARK  224  A    between atoms: _544  and  _545
REMARK  225  A    between atoms: _544  and  _547
REMARK  226  A    between atoms: _547  and  _548
REMARK  227  A    between atoms: _558  and  _560
REMARK  228  A    between atoms: _560  and  _561
REMARK  229  A    between atoms: _564  and  _566
REMARK  230  A    between atoms: _566  and  _567
REMARK  231  A    between atoms: _570  and  _572
REMARK  232  A    between atoms: _572  and  _573
REMARK  233  A    between atoms: _572  and  _575
REMARK  234  A    between atoms: _575  and  _576
REMARK  235  A    between atoms: _579  and  _581
REMARK  236  A    between atoms: _581  and  _582
REMARK  237  A    between atoms: _581  and  _584
REMARK  238  A    between atoms: _584  and  _585
REMARK  239  A    between atoms: _588  and  _590
REMARK  240  A    between atoms: _590  and  _591
REMARK  241  A    between atoms: _590  and  _593
REMARK  242  A    between atoms: _593  and  _594
REMARK  243  A    between atoms: _597  and  _599
REMARK  244  A    between atoms: _599  and  _600
REMARK  245  A    between atoms: _599  and  _602
REMARK  246  A    between atoms: _602  and  _603
REMARK  247  A    between atoms: _603  and  _604
REMARK  248  A    between atoms: _604  and  _605
REMARK  249  A    between atoms: _605  and  _606
REMARK  250  A    between atoms: _610  and  _612
REMARK  251  A    between atoms: _612  and  _613
REMARK  252  A    between atoms: _612  and  _615
REMARK  253  A    between atoms: _615  and  _616
REMARK  254  A    between atoms: _621  and  _623
REMARK  255  A    between atoms: _623  and  _624
REMARK  256  A    between atoms: _623  and  _626
REMARK  257  A    between atoms: _626  and  _627
REMARK  258  A    between atoms: _627  and  _628
REMARK  259  A    between atoms: _628  and  _629
REMARK  260  A    between atoms: _629  and  _630
REMARK  261  A    between atoms: _634  and  _636
REMARK  262  A    between atoms: _636  and  _637
REMARK  263  A    between atoms: _636  and  _639
REMARK  264  A    between atoms: _639  and  _640
REMARK  265  A    between atoms: _650  and  _652
REMARK  266  A    between atoms: _652  and  _653
REMARK  267  A    between atoms: _656  and  _658
REMARK  268  A    between atoms: _658  and  _659
REMARK  269  A    between atoms: _661  and  _663
REMARK  270  A    between atoms: _663  and  _664
REMARK  271  A    between atoms: _667  and  _669
REMARK  272  A    between atoms: _669  and  _670
REMARK  273  A    between atoms: _673  and  _675
REMARK  274  A    between atoms: _675  and  _676
REMARK  275  A    between atoms: _675  and  _678
REMARK  276  A    between atoms: _678  and  _679
REMARK  277  A    between atoms: _684  and  _685
REMARK  278  A    between atoms: _687  and  _689
REMARK  279  A    between atoms: _689  and  _690
REMARK  280  A    between atoms: _689  and  _692
REMARK  281  A    between atoms: _692  and  _693
REMARK  282  A    between atoms: _698  and  _699
REMARK  283  A    between atoms: _701  and  _703
REMARK  284  A    between atoms: _703  and  _704
REMARK  285  A    between atoms: _703  and  _706
REMARK  286  A    between atoms: _706  and  _707
REMARK  287  A    between atoms: _712  and  _713
REMARK  288  A    between atoms: _715  and  _717
REMARK  289  A    between atoms: _717  and  _718
REMARK  290  A    between atoms: _717  and  _720
REMARK  291  A    between atoms: _720  and  _721
REMARK  292  A    between atoms: _724  and  _726
REMARK  293  A    between atoms: _726  and  _727
REMARK  294  A    between atoms: _729  and  _731
REMARK  295  A    between atoms: _731  and  _732
REMARK  296  A    between atoms: _731  and  _734
REMARK  297  A    between atoms: _734  and  _735
REMARK  298  A    between atoms: _738  and  _740
REMARK  299  A    between atoms: _740  and  _741
REMARK  300  A    between atoms: _740  and  _743
REMARK  301  A    between atoms: _743  and  _744
REMARK  302  A    between atoms: _745  and  _747
REMARK  303  A    between atoms: _747  and  _748
REMARK  304  A    between atoms: _747  and  _750
REMARK  305  A    between atoms: _753  and  _755
REMARK  306  A    between atoms: _755  and  _756
REMARK  307  A    between atoms: _755  and  _758
REMARK  308  A    between atoms: _758  and  _759
REMARK  309  A    between atoms: _759  and  _760
REMARK  310  A    between atoms: _763  and  _765
REMARK  311  A    between atoms: _765  and  _766
REMARK  312  A    between atoms: _765  and  _768
REMARK  313  A    between atoms: _768  and  _769
REMARK  314  A    between atoms: _779  and  _781
REMARK  315  A    between atoms: _781  and  _782
REMARK  316  A    between atoms: _781  and  _784
REMARK  317  A    between atoms: _784  and  _785
REMARK  318  A    between atoms: _788  and  _790
REMARK  319  A    between atoms: _790  and  _791
REMARK  320  A    between atoms: _790  and  _793
REMARK  321  A    between atoms: _793  and  _794
REMARK  322  A    between atoms: _799  and  _800
REMARK                            x       y       z     vdW  Elec       q    Type
REMARK                         _______ _______ _______ _____ _____    ______ ____
ROOT
ATOM      1  C   GLU A   1      43.858  63.089  12.384  0.00  0.00    +0.238 C 
ATOM      2  N   TYR A   2      44.765  62.149  12.627  0.00  0.00    -0.298 N 
ATOM      3  H   TYR A   2      45.182  62.075  13.577  0.00  0.00    +0.150 HD
ATOM      4  O   GLU A   1      43.332  63.235  11.277  0.00  0.00    -0.274 OA
ENDROOT
BRANCH   1   5
ATOM      5  CA  GLU A   1      43.480  63.999  13.556  0.00  0.00    +0.145 C 
BRANCH   5   6
ATOM      6  N   GLU A   1      43.536  63.290  14.835  0.00  0.00    -0.238 NA
ATOM      7  H   GLU A   1      44.245  63.569  15.543  0.00  0.00    +0.142 HD
ENDBRANCH   5   6
BRANCH   5   8
ATOM      8  CB  GLU A   1      44.401  65.233  13.586  0.00  0.00    +0.038 C 
BRANCH   8   9
ATOM      9  CG  GLU A   1      44.329  66.087  12.320  0.00  0.00    +0.116 C 
BRANCH   9  10
ATOM     10  CD  GLU A   1      45.164  67.364  12.394  0.00  0.00    +0.365 C 
ATOM     11  OE2 GLU A   1      45.870  67.575  13.409  0.00  0.00    -0.246 OA
ATOM     12  OE1 GLU A   1      45.114  68.159  11.427  0.00  0.00    -0.246 OA
ENDBRANCH   9  10
ENDBRANCH   8   9
ENDBRANCH   5   8
ENDBRANCH   1   5
BRANCH   2  13
ATOM     13  CA  TYR A   2      45.188  61.216  11.582  0.00  0.00    +0.141 C 
BRANCH  13  14
ATOM     14  C   TYR A   2      43.998  60.387  11.104  0.00  0.00    +0.227 C 
ATOM     15  O   TYR A   2      43.769  60.234   9.900  0.00  0.00    -0.286 OA
ENDBRANCH  13  14
BRANCH  13  16
ATOM     16  CB  TYR A   2      46.295  60.292  12.119  0.00  0.00    +0.054 C 
BRANCH  16  17
ATOM     17  CG  TYR A   2      46.706  59.173  11.178  0.00  0.00    -0.020 A 
ATOM     18  CD2 TYR A   2      45.961  57.990  11.095  0.00  0.00    -0.001 A 
ATOM     19  CE2 TYR A   2      46.330  56.965  10.214  0.00  0.00    +0.036 A 
ATOM     20  CZ  TYR A   2      47.449  57.120   9.410  0.00  0.00    +0.134 A 
ATOM     21  CE1 TYR A   2      48.202  58.283   9.471  0.00  0.00    +0.036 A 
ATOM     22  CD1 TYR A   2      47.827  59.303  10.358  0.00  0.00    -0.001 A 
BRANCH  20  23
ATOM     23  OH  TYR A   2      47.831  56.109   8.550  0.00  0.00    -0.506 OA
ATOM     24  HH  TYR A   2      48.741  55.800   8.789  0.00  0.00    +0.292 HD
ENDBRANCH  20  23
ENDBRANCH  16  17
ENDBRANCH  13  16
ENDBRANCH   2  13
TORSDOF 10
REMARK  Name = ../refined-set-2016/1fzk/1fzk_pocket.pdb
REMARK  322 active torsions:
REMARK  status: ('A' for Active; 'I' for Inactive)
REMARK    1  A    between atoms: _1  and  _3
REMARK    2  A    between atoms: _3  and  _4
REMARK    3  A    between atoms: _3  and  _6
REMARK    4  A    between atoms: _6  and  _7
REMARK    5  A    between atoms: _10  and  _12
REMARK    6  A    between atoms: _12  and  _13
REMARK    7  A    between atoms: _12  and  _15
REMARK    8  A    between atoms: _15  and  _16
REMARK    9  A    between atoms: _16  and  _17
REMARK   10  A    between atoms: _17  and  _18
REMARK   11  A    between atoms: _27  and  _29
REMARK   12  A    between atoms: _29  and  _30
REMARK   13  A    between atoms: _29  and  _32
REMARK   14  A    between atoms: _32  and  _33
REMARK   15  A    between atoms: _38  and  _39
REMARK   16  A    between atoms: _41  and  _43
REMARK   17  A    between atoms: _43  and  _44
REMARK   18  A    between atoms: _43  and  _46
REMARK   19  A    between atoms: _46  and  _47
REMARK   20  A    between atoms: _53  and  _55
REMARK   21  A    between atoms: _55  and  _56
REMARK   22  A    between atoms: _55  and  _58
REMARK   23  A    between atoms: _61  and  _63
REMARK   24  A    between atoms: _63  and  _64
REMARK   25  A    between atoms: _63  and  _66
REMARK   26  A    between atoms: _66  and  _67
REMARK   27  A    between atoms: _70  and  _72
REMARK   28  A    between atoms: _72  and  _73
REMARK   29  A    between atoms: _72  and  _75
REMARK   30  A    between atoms: _75  and  _76
REMARK   31  A    between atoms: _81  and  _82
REMARK   32  A    between atoms: _84  and  _86
REMARK   33  A    between atoms: _86  and  _87
REMARK   34  A    between atoms: _86  and  _89
REMARK   35  A    between atoms: _89  and  _90
REMARK   36  A    between atoms: _90  and  _91
REMARK   37  A    between atoms: _93  and  _95
REMARK   38  A    between atoms: _95  and  _96
REMARK   39  A    between atoms: _95  and  _98
REMARK   40  A    between atoms: _98  and  _99
REMARK   41  A    between atoms: _99  and  _100
REMARK   42  A    between atoms: _103  and  _105
REMARK   43  A    between atoms: _105  and  _106
REMARK   44  A    between atoms: _105  and  _108
REMARK   45  A    between atoms: _111  and  _113
REMARK   46  A    between atoms: _113  and  _114
REMARK   47  A    between atoms: _116  and  _118
REMARK   48  A    between atoms: _118  and  _119
REMARK   49  A    between atoms: _118  and  _121
REMARK   50  A    between atoms: _124  and  _126
REMARK   51  A    between atoms: _126  and  _127
REMARK   52  A    between atoms: _126  and  _129
REMARK   53  A    between atoms: _129  and  _130
REMARK   54  A    between atoms: _136  and  _138
REMARK   55  A    between atoms: _138  and  _139
REMARK   56  A    between atoms: _138  and  _141
REMARK   57  A    between atoms: _144  and  _146
REMARK   58  A    between atoms: _146  and  _147
REMARK   59  A    between atoms: _146  and  _149
REMARK   60  A    between atoms: _149  and  _150
REMARK   61  A    between atoms: _155  and  _156
REMARK   62  A    between atoms: _158  and  _160
REMARK   63  A    between atoms: _160  and  _161
REMARK   64  A    between atoms: _160  and  _163
REMARK   65  A    between atoms: _163  and  _164
REMARK   66  A    between atoms: _164  and  _165
REMARK   67  A    between atoms: _167  and  _169
REMARK   68  A    between atoms: _169  and  _170
REMARK   69  A    between atoms: _169  and  _172
REMARK   70  A    between atoms: _172  and  _173
REMARK   71  A    between atoms: _173  and  _174
REMARK   72  A    between atoms: _177  and  _179
REMARK   73  A    between atoms: _179  and  _180
REMARK   74  A    between atoms: _179  and  _182
REMARK   75  A    between atoms: _182  and  _183
REMARK   76  A    between atoms: _183  and  _184
REMARK   77  A    between atoms: _187  and  _189
REMARK   78  A    between atoms: _189  and  _190
REMARK   79  A    between atoms: _189  and  _192
REMARK   80  A    between atoms: _192  and  _193
REMARK   81  A    between atoms: _198  and  _199
REMARK   82  A    between atoms: _201  and  _203
REMARK   83  A    between atoms: _203  and  _204
REMARK   84  A    between atoms: _203  and  _206
REMARK   85  A    between atoms: _206  and  _207
REMARK   86  A    between atoms: _207  and  _208
REMARK   87  A    between atoms: _208  and  _209
REMARK   88  A    between atoms: _218  and  _220
REMARK   89  A    between atoms: _220  and  _221
REMARK   90  A    between atoms: _220  and  _223
REMARK   91  A    between atoms: _223  and  _224
REMARK   92  A    between atoms: _224  and  _225
REMARK   93  A    between atoms: _228  and  _230
REMARK   94  A    between atoms: _230  and  _231
REMARK   95  A    between atoms: _230  and  _233
REMARK   96  A    between atoms: _233  and  _234
REMARK   97  A    between atoms: _234  and  _235
REMARK   98  A    between atoms: _240  and  _242
REMARK   99  A    between atoms: _242  and  _243
REMARK  100  A    between atoms: _242  and  _245
REMARK  101  A    between atoms: _245  and  _246
REMARK  102  A    between atoms: _246  and  _247
REMARK  103  A    between atoms: _247  and  _248
REMARK  104  A    between atoms: _248  and  _249
REMARK  105  A    between atoms: _253  and  _255
REMARK  106  A    between atoms: _255  and  _256
REMARK  107  A    between atoms: _259  and  _261
REMARK  108  A    between atoms: _261  and  _262
REMARK  109  A    between atoms: _264  and  _266
REMARK  110  A    between atoms: _266  and  _267
REMARK  111  A    between atoms: _266  and  _269
REMARK  112  A    between atoms: _269  and  _270
REMARK  113  A    between atoms: _275  and  _277
REMARK  114  A    between atoms: _277  and  _278
REMARK  115  A    between atoms: _277  and  _280
REMARK  116  A    between atoms: _280  and  _281
REMARK  117  A    between atoms: _281  and  _282
REMARK  118  A    between atoms: _285  and  _287
REMARK  119  A    between atoms: _287  and  _288
REMARK  120  A    between atoms: _287  and  _290
REMARK  121  A    between atoms: _290  and  _291
REMARK  122  A    between atoms: _291  and  _292
REMARK  123  A    between atoms: _297  and  _299
REMARK  124  A    between atoms: _299  and  _300
REMARK  125  A    between atoms: _299  and  _302
REMARK  126  A    between atoms: _302  and  _303
REMARK  127  A    between atoms: _305  and  _307
REMARK  128  A    between atoms: _307  and  _308
REMARK  129  A    between atoms: _307  and  _310
REMARK  130  A    between atoms: _310  and  _311
REMARK  131  A    between atoms: _317  and  _319
REMARK  132  A    between atoms: _319  and  _320
REMARK  133  A    between atoms: _319  and  _322
REMARK  134  A    between atoms: _325  and  _327
REMARK  135  A    between atoms: _327  and  _328
REMARK  136  A    between atoms: _327  and  _330
REMARK  137  A    between atoms: _330  and  _331
REMARK  138  A    between atoms: _334  and  _336
REMARK  139  A    between atoms: _336  and  _337
REMARK  140  A    between atoms: _336  and  _339
REMARK  141  A    between atoms: _339  and  _340
REMARK  142  A    between atoms: _343  and  _345
REMARK  143  A    between atoms: _345  and  _346
REMARK  144  A    between atoms: _345  and  _348
REMARK  145  A    between atoms: _348  and  _349
REMARK  146  A    between atoms: _352  and  _354
REMARK  147  A    between atoms: _354  and  _355
REMARK  148  A    between atoms: _354  and  _357
REMARK  149  A    between atoms: _357  and  _358
REMARK  150  A    between atoms: _361  and  _363
REMARK  151  A    between atoms: _363  and  _364
REMARK  152  A    between atoms: _363  and  _366
REMARK  153  A    between atoms: _366  and  _367
REMARK  154  A    between atoms: _372  and  _373
REMARK  155  A    between atoms: _375  and  _377
REMARK  156  A    between atoms: _377  and  _378
REMARK  157  A    between atoms: _377  and  _380
REMARK  158  A    between atoms: _380  and  _381
REMARK  159  A    between atoms: _386  and  _387
REMARK  160  A    between atoms: _389  and  _391
REMARK  161  A    between atoms: _391  and  _392
REMARK  162  A    between atoms: _391  and  _394
REMARK  163  A    between atoms: _394  and  _395
REMARK  164  A    between atoms: _398  and  _400
REMARK  165  A    between atoms: _400  and  _401
REMARK  166  A    between atoms: _400  and  _403
REMARK  167  A    between atoms: _403  and  _404
REMARK  168  A    between atoms: _404  and  _405
REMARK  169  A    between atoms: _410  and  _412
REMARK  170  A    between atoms: _412  and  _413
REMARK  171  A    between atoms: _412  and  _415
REMARK  172  A    between atoms: _418  and  _420
REMARK  173  A    between atoms: _420  and  _421
REMARK  174  A    between atoms: _420  and  _423
REMARK  175  A    between atoms: _423  and  _424
REMARK  176  A    between atoms: _427  and  _429
REMARK  177  A    between atoms: _429  and  _430
REMARK  178  A    between atoms: _429  and  _432
REMARK  179  A    between atoms: _432  and  _433
REMARK  180  A    between atoms: _435  and  _437
REMARK  181  A    between atoms: _437  and  _438
REMARK  182  A    between atoms: _440  and  _442
REMARK  183  A    between atoms: _442  and  _443
REMARK  184  A    between atoms: _442  and  _445
REMARK  185  A    between atoms: _445  and  _446
REMARK  186  A    between atoms: _446  and  _744
REMARK  187  A    between atoms: _447  and  _449
REMARK  188  A    between atoms: _449  and  _450
REMARK  189  A    between atoms: _449  and  _452
REMARK  190  A    between atoms: _452  and  _453
REMARK  191  A    between atoms: _458  and  _459
REMARK  192  A    between atoms: _461  and  _463
REMARK  193  A    between atoms: _463  and  _464
REMARK  194  A    between atoms: _463  and  _466
REMARK  195  A    between atoms: _466  and  _467
REMARK  196  A    between atoms: _467  and  _468
REMARK  197  A    between atoms: _473  and  _475
REMARK  198  A    between atoms: _475  and  _476
REMARK  199  A    between atoms: _475  and  _478
REMARK  200  A    between atoms: _478  and  _479
REMARK  201  A    between atoms: _479  and  _480
REMARK  202  A    between atoms: _485  and  _487
REMARK  203  A    between atoms: _487  and  _488
REMARK  204  A    between atoms: _487  and  _490
REMARK  205  A    between atoms: _490  and  _491
REMARK  206  A    between atoms: _496  and  _497
REMARK  207  A    between atoms: _499  and  _501
REMARK  208  A    between atoms: _501  and  _502
REMARK  209  A    between atoms: _505  and  _507
REMARK  210  A    between atoms: _507  and  _508
REMARK  211  A    between atoms: _507  and  _510
REMARK  212  A    between atoms: _510  and  _511
REMARK  213  A    between atoms: _516  and  _517
REMARK  214  A    between atoms: _519  and  _521
REMARK  215  A    between atoms: _521  and  _522
REMARK  216  A    between atoms: _521  and  _524
REMARK  217  A    between atoms: _524  and  _525
REMARK  218  A    between atoms: _530  and  _531
REMARK  219  A    between atoms: _533  and  _535
REMARK  220  A    between atoms: _535  and  _536
REMARK  221  A    between atoms: _535  and  _538
REMARK  222  A    between atoms: _538  and  _539
REMARK  223  A    between atoms: _542  and  _544
REMARK  224  A    between atoms: _544  and  _545
REMARK  225  A    between atoms: _544  and  _547
REMARK  226  A    between atoms: _547  and  _548
REMARK  227  A    between atoms: _558  and  _560
REMARK  228  A    between atoms: _560  and  _561
REMARK  229  A    between atoms: _564  and  _566
REMARK  230  A    between atoms: _566  and  _567
REMARK  231  A    between atoms: _570  and  _572
REMARK  232  A    between atoms: _572  and  _573
REMARK  233  A    between atoms: _572  and  _575
REMARK  234  A    between atoms: _575  and  _576
REMARK  235  A    between atoms: _579  and  _581
REMARK  236  A    between atoms: _581  and  _582
REMARK  237  A    between atoms: _581  and  _584
REMARK  238  A    between atoms: _584  and  _585
REMARK  239  A    between atoms: _588  and  _590
REMARK  240  A    between atoms: _590  and  _591
REMARK  241  A    between atoms: _590  and  _593
REMARK  242  A    between atoms: _593  and  _594
REMARK  243  A    between atoms: _597  and  _599
REMARK  244  A    between atoms: _599  and  _600
REMARK  245  A    between atoms: _599  and  _602
REMARK  246  A    between atoms: _602  and  _603
REMARK  247  A    between atoms: _603  and  _604
REMARK  248  A    between atoms: _604  and  _605
REMARK  249  A    between atoms: _605  and  _606
REMARK  250  A    between atoms: _610  and  _612
REMARK  251  A    between atoms: _612  and  _613
REMARK  252  A    between atoms: _612  and  _615
REMARK  253  A    between atoms: _615  and  _616
REMARK  254  A    between atoms: _621  and  _623
REMARK  255  A    between atoms: _623  and  _624
REMARK  256  A    between atoms: _623  and  _626
REMARK  257  A    between atoms: _626  and  _627
REMARK  258  A    between atoms: _627  and  _628
REMARK  259  A    between atoms: _628  and  _629
REMARK  260  A    between atoms: _629  and  _630
REMARK  261  A    between atoms: _634  and  _636
REMARK  262  A    between atoms: _636  and  _637
REMARK  263  A    between atoms: _636  and  _639
REMARK  264  A    between atoms: _639  and  _640
REMARK  265  A    between atoms: _650  and  _652
REMARK  266  A    between atoms: _652  and  _653
REMARK  267  A    between atoms: _656  and  _658
REMARK  268  A    between atoms: _658  and  _659
REMARK  269  A    between atoms: _661  and  _663
REMARK  270  A    between atoms: _663  and  _664
REMARK  271  A    between atoms: _667  and  _669
REMARK  272  A    between atoms: _669  and  _670
REMARK  273  A    between atoms: _673  and  _675
REMARK  274  A    between atoms: _675  and  _676
REMARK  275  A    between atoms: _675  and  _678
REMARK  276  A    between atoms: _678  and  _679
REMARK  277  A    between atoms: _684  and  _685
REMARK  278  A    between atoms: _687  and  _689
REMARK  279  A    between atoms: _689  and  _690
REMARK  280  A    between atoms: _689  and  _692
REMARK  281  A    between atoms: _692  and  _693
REMARK  282  A    between atoms: _698  and  _699
REMARK  283  A    between atoms: _701  and  _703
REMARK  284  A    between atoms: _703  and  _704
REMARK  285  A    between atoms: _703  and  _706
REMARK  286  A    between atoms: _706  and  _707
REMARK  287  A    between atoms: _712  and  _713
REMARK  288  A    between atoms: _715  and  _717
REMARK  289  A    between atoms: _717  and  _718
REMARK  290  A    between atoms: _717  and  _720
REMARK  291  A    between atoms: _720  and  _721
REMARK  292  A    between atoms: _724  and  _726
REMARK  293  A    between atoms: _726  and  _727
REMARK  294  A    between atoms: _729  and  _731
REMARK  295  A    between atoms: _731  and  _732
REMARK  296  A    between atoms: _731  and  _734
REMARK  297  A    between atoms: _734  and  _735
REMARK  298  A    between atoms: _738  and  _740
REMARK  299  A    between atoms: _740  and  _741
REMARK  300  A    between atoms: _740  and  _743
REMARK  301  A    between atoms: _743  and  _744
REMARK  302  A    between atoms: _745  and  _747
REMARK  303  A    between atoms: _747  and  _748
REMARK  304  A    between atoms: _747  and  _750
REMARK  305  A    between atoms: _753  and  _755
REMARK  306  A    between atoms: _755  and  _756
REMARK  307  A    between atoms: _755  and  _758
REMARK  308  A    between atoms: _758  and  _759
REMARK  309  A    between atoms: _759  and  _760
REMARK  310  A    between atoms: _763  and  _765
REMARK  311  A    between atoms: _765  and  _766
REMARK  312  A    between atoms: _765  and  _768
REMARK  313  A    between atoms: _768  and  _769
REMARK  314  A    between atoms: _779  and  _781
REMARK  315  A    between atoms: _781  and  _782
REMARK  316  A    between atoms: _781  and  _784
REMARK  317  A    between atoms: _784  and  _785
REMARK  318  A    between atoms: _788  and  _790
REMARK  319  A    between atoms: _790  and  _791
REMARK  320  A    between atoms: _790  and  _793
REMARK  321  A    between atoms: _793  and  _794
REMARK  322  A    between atoms: _799  and  _800
REMARK                            x       y       z     vdW  Elec       q    Type
REMARK                         _______ _______ _______ _____ _____    ______ ____
ROOT
ATOM      1  CA  ARG A   1      41.734  62.759   7.760  0.00  0.00    +0.145 C 
ENDROOT
BRANCH   1   2
ATOM      2  C   ARG A   1      41.648  61.540   6.842  0.00  0.00    +0.238 C 
ATOM      3  N   GLU A   2      42.079  60.384   7.339  0.00  0.00    -0.298 N 
ATOM      4  H   GLU A   2      42.451  60.340   8.309  0.00  0.00    +0.150 HD
ATOM      5  O   ARG A   1      41.199  61.646   5.692  0.00  0.00    -0.274 OA
BRANCH   3   6
ATOM      6  CA  GLU A   2      42.028  59.176   6.517  0.00  0.00    +0.137 C 
BRANCH   6   7
ATOM      7  C   GLU A   2      40.577  58.779   6.249  0.00  0.00    +0.227 C 
ATOM      8  O   GLU A   2      40.252  58.306   5.158  0.00  0.00    -0.286 OA
ENDBRANCH   6   7
BRANCH   6   9
ATOM      9  CB  GLU A   2      42.788  58.021   7.192  0.00  0.00    +0.039 C 
BRANCH   9  10
ATOM     10  CG  GLU A   2      44.296  58.265   7.361  0.00  0.00    +0.116 C 
BRANCH  10  11
ATOM     11  CD  GLU A   2      45.030  58.465   6.038  0.00  0.00    +0.365 C 
ATOM     12  OE2 GLU A   2      45.314  59.635   5.695  0.00  0.00    -0.246 OA
ATOM     13  OE1 GLU A   2      45.326  57.467   5.336  0.00  0.00    -0.246 OA
ENDBRANCH  10  11
ENDBRANCH   9  10
ENDBRANCH   6   9
ENDBRANCH   3   6
ENDBRANCH   1   2
BRANCH   1  14
ATOM     14  N   ARG A   1      41.310  62.470   9.129  0.00  0.00    -0.238 NA
ATOM     15  H   ARG A   1      42.010  62.510   9.897  0.00  0.00    +0.142 HD
ENDBRANCH   1  14
BRANCH   1  16
ATOM     16  CB  ARG A   1      43.162  63.307   7.760  0.00  0.00    +0.030 C 
BRANCH  16  17
ATOM     17  CG  ARG A   1      43.667  63.734   6.390  0.00  0.00    +0.045 C 
BRANCH  17  18
ATOM     18  CD  ARG A   1      44.883  64.643   6.505  0.00  0.00    +0.174 C 
BRANCH  18  19
ATOM     19  NE  ARG A   1      45.354  65.075   5.193  0.00  0.00    -0.265 N 
ATOM     20  CZ  ARG A   1      46.121  66.140   4.986  0.00  0.00    +0.342 C 
ATOM     21  NH2 ARG A   1      46.505  66.887   6.011  0.00  0.00    -0.292 N 
ATOM     22 HH21 ARG A   1      46.206  66.639   6.976  0.00  0.00    +0.255 HD
ATOM     23 HH22 ARG A   1      47.105  67.721   5.851  0.00  0.00    +0.255 HD
ATOM     24  NH1 ARG A   1      46.501  66.460   3.754  0.00  0.00    -0.292 N 
ATOM     25 HH11 ARG A   1      47.101  67.294   3.595  0.00  0.00    +0.255 HD
ATOM     26 HH12 ARG A   1      46.198  65.876   2.948  0.00  0.00    +0.255 HD
ATOM     27  HE  ARG A   1      45.071  64.512   4.366  0.00  0.00    +0.259 HD
ENDBRANCH  18  19
ENDBRANCH  17  18
ENDBRANCH  16  17
ENDBRANCH   1  16
TORSDOF 11
REMARK  Name = ../refined-set-2016/1fzk/1fzk_pocket.pdb
REMARK  322 active torsions:
REMARK  status: ('A' for Active; 'I' for Inactive)
REMARK    1  A    between atoms: _1  and  _3
REMARK    2  A    between atoms: _3  and  _4
REMARK    3  A    between atoms: _3  and  _6
REMARK    4  A    between atoms: _6  and  _7
REMARK    5  A    between atoms: _10  and  _12
REMARK    6  A    between atoms: _12  and  _13
REMARK    7  A    between atoms: _12  and  _15
REMARK    8  A    between atoms: _15  and  _16
REMARK    9  A    between atoms: _16  and  _17
REMARK   10  A    between atoms: _17  and  _18
REMARK   11  A    between atoms: _27  and  _29
REMARK   12  A    between atoms: _29  and  _30
REMARK   13  A    between atoms: _29  and  _32
REMARK   14  A    between atoms: _32  and  _33
REMARK   15  A    between atoms: _38  and  _39
REMARK   16  A    between atoms: _41  and  _43
REMARK   17  A    between atoms: _43  and  _44
REMARK   18  A    between atoms: _43  and  _46
REMARK   19  A    between atoms: _46  and  _47
REMARK   20  A    between atoms: _53  and  _55
REMARK   21  A    between atoms: _55  and  _56
REMARK   22  A    between atoms: _55  and  _58
REMARK   23  A    between atoms: _61  and  _63
REMARK   24  A    between atoms: _63  and  _64
REMARK   25  A    between atoms: _63  and  _66
REMARK   26  A    between atoms: _66  and  _67
REMARK   27  A    between atoms: _70  and  _72
REMARK   28  A    between atoms: _72  and  _73
REMARK   29  A    between atoms: _72  and  _75
REMARK   30  A    between atoms: _75  and  _76
REMARK   31  A    between atoms: _81  and  _82
REMARK   32  A    between atoms: _84  and  _86
REMARK   33  A    between atoms: _86  and  _87
REMARK   34  A    between atoms: _86  and  _89
REMARK   35  A    between atoms: _89  and  _90
REMARK   36  A    between atoms: _90  and  _91
REMARK   37  A    between atoms: _93  and  _95
REMARK   38  A    between atoms: _95  and  _96
REMARK   39  A    between atoms: _95  and  _98
REMARK   40  A    between atoms: _98  and  _99
REMARK   41  A    between atoms: _99  and  _100
REMARK   42  A    between atoms: _103  and  _105
REMARK   43  A    between atoms: _105  and  _106
REMARK   44  A    between atoms: _105  and  _108
REMARK   45  A    between atoms: _111  and  _113
REMARK   46  A    between atoms: _113  and  _114
REMARK   47  A    between atoms: _116  and  _118
REMARK   48  A    between atoms: _118  and  _119
REMARK   49  A    between atoms: _118  and  _121
REMARK   50  A    between atoms: _124  and  _126
REMARK   51  A    between atoms: _126  and  _127
REMARK   52  A    between atoms: _126  and  _129
REMARK   53  A    between atoms: _129  and  _130
REMARK   54  A    between atoms: _136  and  _138
REMARK   55  A    between atoms: _138  and  _139
REMARK   56  A    between atoms: _138  and  _141
REMARK   57  A    between atoms: _144  and  _146
REMARK   58  A    between atoms: _146  and  _147
REMARK   59  A    between atoms: _146  and  _149
REMARK   60  A    between atoms: _149  and  _150
REMARK   61  A    between atoms: _155  and  _156
REMARK   62  A    between atoms: _158  and  _160
REMARK   63  A    between atoms: _160  and  _161
REMARK   64  A    between atoms: _160  and  _163
REMARK   65  A    between atoms: _163  and  _164
REMARK   66  A    between atoms: _164  and  _165
REMARK   67  A    between atoms: _167  and  _169
REMARK   68  A    between atoms: _169  and  _170
REMARK   69  A    between atoms: _169  and  _172
REMARK   70  A    between atoms: _172  and  _173
REMARK   71  A    between atoms: _173  and  _174
REMARK   72  A    between atoms: _177  and  _179
REMARK   73  A    between atoms: _179  and  _180
REMARK   74  A    between atoms: _179  and  _182
REMARK   75  A    between atoms: _182  and  _183
REMARK   76  A    between atoms: _183  and  _184
REMARK   77  A    between atoms: _187  and  _189
REMARK   78  A    between atoms: _189  and  _190
REMARK   79  A    between atoms: _189  and  _192
REMARK   80  A    between atoms: _192  and  _193
REMARK   81  A    between atoms: _198  and  _199
REMARK   82  A    between atoms: _201  and  _203
REMARK   83  A    between atoms: _203  and  _204
REMARK   84  A    between atoms: _203  and  _206
REMARK   85  A    between atoms: _206  and  _207
REMARK   86  A    between atoms: _207  and  _208
REMARK   87  A    between atoms: _208  and  _209
REMARK   88  A    between atoms: _218  and  _220
REMARK   89  A    between atoms: _220  and  _221
REMARK   90  A    between atoms: _220  and  _223
REMARK   91  A    between atoms: _223  and  _224
REMARK   92  A    between atoms: _224  and  _225
REMARK   93  A    between atoms: _228  and  _230
REMARK   94  A    between atoms: _230  and  _231
REMARK   95  A    between atoms: _230  and  _233
REMARK   96  A    between atoms: _233  and  _234
REMARK   97  A    between atoms: _234  and  _235
REMARK   98  A    between atoms: _240  and  _242
REMARK   99  A    between atoms: _242  and  _243
REMARK  100  A    between atoms: _242  and  _245
REMARK  101  A    between atoms: _245  and  _246
REMARK  102  A    between atoms: _246  and  _247
REMARK  103  A    between atoms: _247  and  _248
REMARK  104  A    between atoms: _248  and  _249
REMARK  105  A    between atoms: _253  and  _255
REMARK  106  A    between atoms: _255  and  _256
REMARK  107  A    between atoms: _259  and  _261
REMARK  108  A    between atoms: _261  and  _262
REMARK  109  A    between atoms: _264  and  _266
REMARK  110  A    between atoms: _266  and  _267
REMARK  111  A    between atoms: _266  and  _269
REMARK  112  A    between atoms: _269  and  _270
REMARK  113  A    between atoms: _275  and  _277
REMARK  114  A    between atoms: _277  and  _278
REMARK  115  A    between atoms: _277  and  _280
REMARK  116  A    between atoms: _280  and  _281
REMARK  117  A    between atoms: _281  and  _282
REMARK  118  A    between atoms: _285  and  _287
REMARK  119  A    between atoms: _287  and  _288
REMARK  120  A    between atoms: _287  and  _290
REMARK  121  A    between atoms: _290  and  _291
REMARK  122  A    between atoms: _291  and  _292
REMARK  123  A    between atoms: _297  and  _299
REMARK  124  A    between atoms: _299  and  _300
REMARK  125  A    between atoms: _299  and  _302
REMARK  126  A    between atoms: _302  and  _303
REMARK  127  A    between atoms: _305  and  _307
REMARK  128  A    between atoms: _307  and  _308
REMARK  129  A    between atoms: _307  and  _310
REMARK  130  A    between atoms: _310  and  _311
REMARK  131  A    between atoms: _317  and  _319
REMARK  132  A    between atoms: _319  and  _320
REMARK  133  A    between atoms: _319  and  _322
REMARK  134  A    between atoms: _325  and  _327
REMARK  135  A    between atoms: _327  and  _328
REMARK  136  A    between atoms: _327  and  _330
REMARK  137  A    between atoms: _330  and  _331
REMARK  138  A    between atoms: _334  and  _336
REMARK  139  A    between atoms: _336  and  _337
REMARK  140  A    between atoms: _336  and  _339
REMARK  141  A    between atoms: _339  and  _340
REMARK  142  A    between atoms: _343  and  _345
REMARK  143  A    between atoms: _345  and  _346
REMARK  144  A    between atoms: _345  and  _348
REMARK  145  A    between atoms: _348  and  _349
REMARK  146  A    between atoms: _352  and  _354
REMARK  147  A    between atoms: _354  and  _355
REMARK  148  A    between atoms: _354  and  _357
REMARK  149  A    between atoms: _357  and  _358
REMARK  150  A    between atoms: _361  and  _363
REMARK  151  A    between atoms: _363  and  _364
REMARK  152  A    between atoms: _363  and  _366
REMARK  153  A    between atoms: _366  and  _367
REMARK  154  A    between atoms: _372  and  _373
REMARK  155  A    between atoms: _375  and  _377
REMARK  156  A    between atoms: _377  and  _378
REMARK  157  A    between atoms: _377  and  _380
REMARK  158  A    between atoms: _380  and  _381
REMARK  159  A    between atoms: _386  and  _387
REMARK  160  A    between atoms: _389  and  _391
REMARK  161  A    between atoms: _391  and  _392
REMARK  162  A    between atoms: _391  and  _394
REMARK  163  A    between atoms: _394  and  _395
REMARK  164  A    between atoms: _398  and  _400
REMARK  165  A    between atoms: _400  and  _401
REMARK  166  A    between atoms: _400  and  _403
REMARK  167  A    between atoms: _403  and  _404
REMARK  168  A    between atoms: _404  and  _405
REMARK  169  A    between atoms: _410  and  _412
REMARK  170  A    between atoms: _412  and  _413
REMARK  171  A    between atoms: _412  and  _415
REMARK  172  A    between atoms: _418  and  _420
REMARK  173  A    between atoms: _420  and  _421
REMARK  174  A    between atoms: _420  and  _423
REMARK  175  A    between atoms: _423  and  _424
REMARK  176  A    between atoms: _427  and  _429
REMARK  177  A    between atoms: _429  and  _430
REMARK  178  A    between atoms: _429  and  _432
REMARK  179  A    between atoms: _432  and  _433
REMARK  180  A    between atoms: _435  and  _437
REMARK  181  A    between atoms: _437  and  _438
REMARK  182  A    between atoms: _440  and  _442
REMARK  183  A    between atoms: _442  and  _443
REMARK  184  A    between atoms: _442  and  _445
REMARK  185  A    between atoms: _445  and  _446
REMARK  186  A    between atoms: _446  and  _744
REMARK  187  A    between atoms: _447  and  _449
REMARK  188  A    between atoms: _449  and  _450
REMARK  189  A    between atoms: _449  and  _452
REMARK  190  A    between atoms: _452  and  _453
REMARK  191  A    between atoms: _458  and  _459
REMARK  192  A    between atoms: _461  and  _463
REMARK  193  A    between atoms: _463  and  _464
REMARK  194  A    between atoms: _463  and  _466
REMARK  195  A    between atoms: _466  and  _467
REMARK  196  A    between atoms: _467  and  _468
REMARK  197  A    between atoms: _473  and  _475
REMARK  198  A    between atoms: _475  and  _476
REMARK  199  A    between atoms: _475  and  _478
REMARK  200  A    between atoms: _478  and  _479
REMARK  201  A    between atoms: _479  and  _480
REMARK  202  A    between atoms: _485  and  _487
REMARK  203  A    between atoms: _487  and  _488
REMARK  204  A    between atoms: _487  and  _490
REMARK  205  A    between atoms: _490  and  _491
REMARK  206  A    between atoms: _496  and  _497
REMARK  207  A    between atoms: _499  and  _501
REMARK  208  A    between atoms: _501  and  _502
REMARK  209  A    between atoms: _505  and  _507
REMARK  210  A    between atoms: _507  and  _508
REMARK  211  A    between atoms: _507  and  _510
REMARK  212  A    between atoms: _510  and  _511
REMARK  213  A    between atoms: _516  and  _517
REMARK  214  A    between atoms: _519  and  _521
REMARK  215  A    between atoms: _521  and  _522
REMARK  216  A    between atoms: _521  and  _524
REMARK  217  A    between atoms: _524  and  _525
REMARK  218  A    between atoms: _530  and  _531
REMARK  219  A    between atoms: _533  and  _535
REMARK  220  A    between atoms: _535  and  _536
REMARK  221  A    between atoms: _535  and  _538
REMARK  222  A    between atoms: _538  and  _539
REMARK  223  A    between atoms: _542  and  _544
REMARK  224  A    between atoms: _544  and  _545
REMARK  225  A    between atoms: _544  and  _547
REMARK  226  A    between atoms: _547  and  _548
REMARK  227  A    between atoms: _558  and  _560
REMARK  228  A    between atoms: _560  and  _561
REMARK  229  A    between atoms: _564  and  _566
REMARK  230  A    between atoms: _566  and  _567
REMARK  231  A    between atoms: _570  and  _572
REMARK  232  A    between atoms: _572  and  _573
REMARK  233  A    between atoms: _572  and  _575
REMARK  234  A    between atoms: _575  and  _576
REMARK  235  A    between atoms: _579  and  _581
REMARK  236  A    between atoms: _581  and  _582
REMARK  237  A    between atoms: _581  and  _584
REMARK  238  A    between atoms: _584  and  _585
REMARK  239  A    between atoms: _588  and  _590
REMARK  240  A    between atoms: _590  and  _591
REMARK  241  A    between atoms: _590  and  _593
REMARK  242  A    between atoms: _593  and  _594
REMARK  243  A    between atoms: _597  and  _599
REMARK  244  A    between atoms: _599  and  _600
REMARK  245  A    between atoms: _599  and  _602
REMARK  246  A    between atoms: _602  and  _603
REMARK  247  A    between atoms: _603  and  _604
REMARK  248  A    between atoms: _604  and  _605
REMARK  249  A    between atoms: _605  and  _606
REMARK  250  A    between atoms: _610  and  _612
REMARK  251  A    between atoms: _612  and  _613
REMARK  252  A    between atoms: _612  and  _615
REMARK  253  A    between atoms: _615  and  _616
REMARK  254  A    between atoms: _621  and  _623
REMARK  255  A    between atoms: _623  and  _624
REMARK  256  A    between atoms: _623  and  _626
REMARK  257  A    between atoms: _626  and  _627
REMARK  258  A    between atoms: _627  and  _628
REMARK  259  A    between atoms: _628  and  _629
REMARK  260  A    between atoms: _629  and  _630
REMARK  261  A    between atoms: _634  and  _636
REMARK  262  A    between atoms: _636  and  _637
REMARK  263  A    between atoms: _636  and  _639
REMARK  264  A    between atoms: _639  and  _640
REMARK  265  A    between atoms: _650  and  _652
REMARK  266  A    between atoms: _652  and  _653
REMARK  267  A    between atoms: _656  and  _658
REMARK  268  A    between atoms: _658  and  _659
REMARK  269  A    between atoms: _661  and  _663
REMARK  270  A    between atoms: _663  and  _664
REMARK  271  A    between atoms: _667  and  _669
REMARK  272  A    between atoms: _669  and  _670
REMARK  273  A    between atoms: _673  and  _675
REMARK  274  A    between atoms: _675  and  _676
REMARK  275  A    between atoms: _675  and  _678
REMARK  276  A    between atoms: _678  and  _679
REMARK  277  A    between atoms: _684  and  _685
REMARK  278  A    between atoms: _687  and  _689
REMARK  279  A    between atoms: _689  and  _690
REMARK  280  A    between atoms: _689  and  _692
REMARK  281  A    between atoms: _692  and  _693
REMARK  282  A    between atoms: _698  and  _699
REMARK  283  A    between atoms: _701  and  _703
REMARK  284  A    between atoms: _703  and  _704
REMARK  285  A    between atoms: _703  and  _706
REMARK  286  A    between atoms: _706  and  _707
REMARK  287  A    between atoms: _712  and  _713
REMARK  288  A    between atoms: _715  and  _717
REMARK  289  A    between atoms: _717  and  _718
REMARK  290  A    between atoms: _717  and  _720
REMARK  291  A    between atoms: _720  and  _721
REMARK  292  A    between atoms: _724  and  _726
REMARK  293  A    between atoms: _726  and  _727
REMARK  294  A    between atoms: _729  and  _731
REMARK  295  A    between atoms: _731  and  _732
REMARK  296  A    between atoms: _731  and  _734
REMARK  297  A    between atoms: _734  and  _735
REMARK  298  A    between atoms: _738  and  _740
REMARK  299  A    between atoms: _740  and  _741
REMARK  300  A    between atoms: _740  and  _743
REMARK  301  A    between atoms: _743  and  _744
REMARK  302  A    between atoms: _745  and  _747
REMARK  303  A    between atoms: _747  and  _748
REMARK  304  A    between atoms: _747  and  _750
REMARK  305  A    between atoms: _753  and  _755
REMARK  306  A    between atoms: _755  and  _756
REMARK  307  A    between atoms: _755  and  _758
REMARK  308  A    between atoms: _758  and  _759
REMARK  309  A    between atoms: _759  and  _760
REMARK  310  A    between atoms: _763  and  _765
REMARK  311  A    between atoms: _765  and  _766
REMARK  312  A    between atoms: _765  and  _768
REMARK  313  A    between atoms: _768  and  _769
REMARK  314  A    between atoms: _779  and  _781
REMARK  315  A    between atoms: _781  and  _782
REMARK  316  A    between atoms: _781  and  _784
REMARK  317  A    between atoms: _784  and  _785
REMARK  318  A    between atoms: _788  and  _790
REMARK  319  A    between atoms: _790  and  _791
REMARK  320  A    between atoms: _790  and  _793
REMARK  321  A    between atoms: _793  and  _794
REMARK  322  A    between atoms: _799  and  _800
REMARK                            x       y       z     vdW  Elec       q    Type
REMARK                         _______ _______ _______ _____ _____    ______ ____
ROOT
ATOM      1  CA  LYS A   2      39.654  60.573   2.177  0.00  0.00    +0.149 C 
ENDROOT
BRANCH   1   3
ATOM      2  C   GLN A   1      37.864  61.360   3.609  0.00  0.00    +0.238 C 
ATOM      3  N   LYS A   2      39.125  60.957   3.483  0.00  0.00    -0.297 N 
ATOM      4  H   LYS A   2      39.739  60.915   4.321  0.00  0.00    +0.150 HD
ATOM      5  O   GLN A   1      37.095  61.438   2.646  0.00  0.00    -0.274 OA
BRANCH   2   6
ATOM      6  CA  GLN A   1      37.390  61.731   5.016  0.00  0.00    +0.145 C 
BRANCH   6   7
ATOM      7  N   GLN A   1      37.948  60.824   6.018  0.00  0.00    -0.238 NA
ATOM      8  H   GLN A   1      38.577  61.197   6.757  0.00  0.00    +0.142 HD
ENDBRANCH   6   7
BRANCH   6   9
ATOM      9  CB  GLN A   1      37.773  63.182   5.336  0.00  0.00    +0.036 C 
BRANCH   9  10
ATOM     10  CG  GLN A   1      37.119  63.729   6.602  0.00  0.00    +0.087 C 
BRANCH  10  11
ATOM     11  CD  GLN A   1      37.442  65.197   6.848  0.00  0.00    +0.219 C 
ATOM     12  NE2 GLN A   1      37.164  65.672   8.060  0.00  0.00    -0.329 N 
ATOM     13 HE21 GLN A   1      36.757  65.045   8.783  0.00  0.00    +0.145 HD
ATOM     14 HE22 GLN A   1      37.353  66.670   8.283  0.00  0.00    +0.145 HD
ATOM     15  OE1 GLN A   1      37.926  65.900   5.953  0.00  0.00    -0.275 OA
ENDBRANCH  10  11
ENDBRANCH   9  10
ENDBRANCH   6   9
ENDBRANCH   2   6
ENDBRANCH   1   3
BRANCH   1  16
ATOM     16  C   LYS A   2      38.935  59.330   1.674  0.00  0.00    +0.241 C 
ATOM     17  N   ALA A   3      38.764  58.352   2.559  0.00  0.00    -0.298 N 
ATOM     18  H   ALA A   3      39.115  58.467   3.531  0.00  0.00    +0.150 HD
ATOM     19  O   LYS A   2      38.540  59.253   0.506  0.00  0.00    -0.273 OA
BRANCH  17  20
ATOM     20  CA  ALA A   3      38.087  57.119   2.175  0.00  0.00    +0.137 C 
ATOM     21  CB  ALA A   3      38.073  56.130   3.357  0.00  0.00    +0.030 C 
BRANCH  20  22
ATOM     22  C   ALA A   3      36.662  57.372   1.683  0.00  0.00    +0.227 C 
ATOM     23  O   ALA A   3      36.233  56.785   0.693  0.00  0.00    -0.286 OA
ENDBRANCH  20  22
ENDBRANCH  17  20
ENDBRANCH   1  16
BRANCH   1  24
ATOM     24  CB  LYS A   2      41.158  60.292   2.251  0.00  0.00    +0.029 C 
BRANCH  24  25
ATOM     25  CG  LYS A   2      42.009  61.509   2.553  0.00  0.00    +0.000 C 
BRANCH  25  26
ATOM     26  CD  LYS A   2      43.485  61.263   2.269  0.00  0.00    -0.024 C 
BRANCH  26  27
ATOM     27  CE  LYS A   2      44.049  60.113   3.088  0.00  0.00    -0.086 C 
BRANCH  27  28
ATOM     28  NZ  LYS A   2      45.547  60.104   3.062  0.00  0.00    +0.380 N 
ATOM     29  HZ1 LYS A   2      45.898  59.307   3.631  0.00  0.00    -0.089 HD
ATOM     30  HZ2 LYS A   2      45.905  60.997   3.457  0.00  0.00    -0.089 HD
ATOM     31  HZ3 LYS A   2      45.875  60.002   2.080  0.00  0.00    -0.089 HD
ENDBRANCH  27  28
ENDBRANCH  26  27
ENDBRANCH  25  26
ENDBRANCH  24  25
ENDBRANCH   1  24
TORSDOF 14
REMARK  Name = ../refined-set-2016/1fzk/1fzk_pocket.pdb
REMARK  322 active torsions:
REMARK  status: ('A' for Active; 'I' for Inactive)
REMARK    1  A    between atoms: _1  and  _3
REMARK    2  A    between atoms: _3  and  _4
REMARK    3  A    between atoms: _3  and  _6
REMARK    4  A    between atoms: _6  and  _7
REMARK    5  A    between atoms: _10  and  _12
REMARK    6  A    between atoms: _12  and  _13
REMARK    7  A    between atoms: _12  and  _15
REMARK    8  A    between atoms: _15  and  _16
REMARK    9  A    between atoms: _16  and  _17
REMARK   10  A    between atoms: _17  and  _18
REMARK   11  A    between atoms: _27  and  _29
REMARK   12  A    between atoms: _29  and  _30
REMARK   13  A    between atoms: _29  and  _32
REMARK   14  A    between atoms: _32  and  _33
REMARK   15  A    between atoms: _38  and  _39
REMARK   16  A    between atoms: _41  and  _43
REMARK   17  A    between atoms: _43  and  _44
REMARK   18  A    between atoms: _43  and  _46
REMARK   19  A    between atoms: _46  and  _47
REMARK   20  A    between atoms: _53  and  _55
REMARK   21  A    between atoms: _55  and  _56
REMARK   22  A    between atoms: _55  and  _58
REMARK   23  A    between atoms: _61  and  _63
REMARK   24  A    between atoms: _63  and  _64
REMARK   25  A    between atoms: _63  and  _66
REMARK   26  A    between atoms: _66  and  _67
REMARK   27  A    between atoms: _70  and  _72
REMARK   28  A    between atoms: _72  and  _73
REMARK   29  A    between atoms: _72  and  _75
REMARK   30  A    between atoms: _75  and  _76
REMARK   31  A    between atoms: _81  and  _82
REMARK   32  A    between atoms: _84  and  _86
REMARK   33  A    between atoms: _86  and  _87
REMARK   34  A    between atoms: _86  and  _89
REMARK   35  A    between atoms: _89  and  _90
REMARK   36  A    between atoms: _90  and  _91
REMARK   37  A    between atoms: _93  and  _95
REMARK   38  A    between atoms: _95  and  _96
REMARK   39  A    between atoms: _95  and  _98
REMARK   40  A    between atoms: _98  and  _99
REMARK   41  A    between atoms: _99  and  _100
REMARK   42  A    between atoms: _103  and  _105
REMARK   43  A    between atoms: _105  and  _106
REMARK   44  A    between atoms: _105  and  _108
REMARK   45  A    between atoms: _111  and  _113
REMARK   46  A    between atoms: _113  and  _114
REMARK   47  A    between atoms: _116  and  _118
REMARK   48  A    between atoms: _118  and  _119
REMARK   49  A    between atoms: _118  and  _121
REMARK   50  A    between atoms: _124  and  _126
REMARK   51  A    between atoms: _126  and  _127
REMARK   52  A    between atoms: _126  and  _129
REMARK   53  A    between atoms: _129  and  _130
REMARK   54  A    between atoms: _136  and  _138
REMARK   55  A    between atoms: _138  and  _139
REMARK   56  A    between atoms: _138  and  _141
REMARK   57  A    between atoms: _144  and  _146
REMARK   58  A    between atoms: _146  and  _147
REMARK   59  A    between atoms: _146  and  _149
REMARK   60  A    between atoms: _149  and  _150
REMARK   61  A    between atoms: _155  and  _156
REMARK   62  A    between atoms: _158  and  _160
REMARK   63  A    between atoms: _160  and  _161
REMARK   64  A    between atoms: _160  and  _163
REMARK   65  A    between atoms: _163  and  _164
REMARK   66  A    between atoms: _164  and  _165
REMARK   67  A    between atoms: _167  and  _169
REMARK   68  A    between atoms: _169  and  _170
REMARK   69  A    between atoms: _169  and  _172
REMARK   70  A    between atoms: _172  and  _173
REMARK   71  A    between atoms: _173  and  _174
REMARK   72  A    between atoms: _177  and  _179
REMARK   73  A    between atoms: _179  and  _180
REMARK   74  A    between atoms: _179  and  _182
REMARK   75  A    between atoms: _182  and  _183
REMARK   76  A    between atoms: _183  and  _184
REMARK   77  A    between atoms: _187  and  _189
REMARK   78  A    between atoms: _189  and  _190
REMARK   79  A    between atoms: _189  and  _192
REMARK   80  A    between atoms: _192  and  _193
REMARK   81  A    between atoms: _198  and  _199
REMARK   82  A    between atoms: _201  and  _203
REMARK   83  A    between atoms: _203  and  _204
REMARK   84  A    between atoms: _203  and  _206
REMARK   85  A    between atoms: _206  and  _207
REMARK   86  A    between atoms: _207  and  _208
REMARK   87  A    between atoms: _208  and  _209
REMARK   88  A    between atoms: _218  and  _220
REMARK   89  A    between atoms: _220  and  _221
REMARK   90  A    between atoms: _220  and  _223
REMARK   91  A    between atoms: _223  and  _224
REMARK   92  A    between atoms: _224  and  _225
REMARK   93  A    between atoms: _228  and  _230
REMARK   94  A    between atoms: _230  and  _231
REMARK   95  A    between atoms: _230  and  _233
REMARK   96  A    between atoms: _233  and  _234
REMARK   97  A    between atoms: _234  and  _235
REMARK   98  A    between atoms: _240  and  _242
REMARK   99  A    between atoms: _242  and  _243
REMARK  100  A    between atoms: _242  and  _245
REMARK  101  A    between atoms: _245  and  _246
REMARK  102  A    between atoms: _246  and  _247
REMARK  103  A    between atoms: _247  and  _248
REMARK  104  A    between atoms: _248  and  _249
REMARK  105  A    between atoms: _253  and  _255
REMARK  106  A    between atoms: _255  and  _256
REMARK  107  A    between atoms: _259  and  _261
REMARK  108  A    between atoms: _261  and  _262
REMARK  109  A    between atoms: _264  and  _266
REMARK  110  A    between atoms: _266  and  _267
REMARK  111  A    between atoms: _266  and  _269
REMARK  112  A    between atoms: _269  and  _270
REMARK  113  A    between atoms: _275  and  _277
REMARK  114  A    between atoms: _277  and  _278
REMARK  115  A    between atoms: _277  and  _280
REMARK  116  A    between atoms: _280  and  _281
REMARK  117  A    between atoms: _281  and  _282
REMARK  118  A    between atoms: _285  and  _287
REMARK  119  A    between atoms: _287  and  _288
REMARK  120  A    between atoms: _287  and  _290
REMARK  121  A    between atoms: _290  and  _291
REMARK  122  A    between atoms: _291  and  _292
REMARK  123  A    between atoms: _297  and  _299
REMARK  124  A    between atoms: _299  and  _300
REMARK  125  A    between atoms: _299  and  _302
REMARK  126  A    between atoms: _302  and  _303
REMARK  127  A    between atoms: _305  and  _307
REMARK  128  A    between atoms: _307  and  _308
REMARK  129  A    between atoms: _307  and  _310
REMARK  130  A    between atoms: _310  and  _311
REMARK  131  A    between atoms: _317  and  _319
REMARK  132  A    between atoms: _319  and  _320
REMARK  133  A    between atoms: _319  and  _322
REMARK  134  A    between atoms: _325  and  _327
REMARK  135  A    between atoms: _327  and  _328
REMARK  136  A    between atoms: _327  and  _330
REMARK  137  A    between atoms: _330  and  _331
REMARK  138  A    between atoms: _334  and  _336
REMARK  139  A    between atoms: _336  and  _337
REMARK  140  A    between atoms: _336  and  _339
REMARK  141  A    between atoms: _339  and  _340
REMARK  142  A    between atoms: _343  and  _345
REMARK  143  A    between atoms: _345  and  _346
REMARK  144  A    between atoms: _345  and  _348
REMARK  145  A    between atoms: _348  and  _349
REMARK  146  A    between atoms: _352  and  _354
REMARK  147  A    between atoms: _354  and  _355
REMARK  148  A    between atoms: _354  and  _357
REMARK  149  A    between atoms: _357  and  _358
REMARK  150  A    between atoms: _361  and  _363
REMARK  151  A    between atoms: _363  and  _364
REMARK  152  A    between atoms: _363  and  _366
REMARK  153  A    between atoms: _366  and  _367
REMARK  154  A    between atoms: _372  and  _373
REMARK  155  A    between atoms: _375  and  _377
REMARK  156  A    between atoms: _377  and  _378
REMARK  157  A    between atoms: _377  and  _380
REMARK  158  A    between atoms: _380  and  _381
REMARK  159  A    between atoms: _386  and  _387
REMARK  160  A    between atoms: _389  and  _391
REMARK  161  A    between atoms: _391  and  _392
REMARK  162  A    between atoms: _391  and  _394
REMARK  163  A    between atoms: _394  and  _395
REMARK  164  A    between atoms: _398  and  _400
REMARK  165  A    between atoms: _400  and  _401
REMARK  166  A    between atoms: _400  and  _403
REMARK  167  A    between atoms: _403  and  _404
REMARK  168  A    between atoms: _404  and  _405
REMARK  169  A    between atoms: _410  and  _412
REMARK  170  A    between atoms: _412  and  _413
REMARK  171  A    between atoms: _412  and  _415
REMARK  172  A    between atoms: _418  and  _420
REMARK  173  A    between atoms: _420  and  _421
REMARK  174  A    between atoms: _420  and  _423
REMARK  175  A    between atoms: _423  and  _424
REMARK  176  A    between atoms: _427  and  _429
REMARK  177  A    between atoms: _429  and  _430
REMARK  178  A    between atoms: _429  and  _432
REMARK  179  A    between atoms: _432  and  _433
REMARK  180  A    between atoms: _435  and  _437
REMARK  181  A    between atoms: _437  and  _438
REMARK  182  A    between atoms: _440  and  _442
REMARK  183  A    between atoms: _442  and  _443
REMARK  184  A    between atoms: _442  and  _445
REMARK  185  A    between atoms: _445  and  _446
REMARK  186  A    between atoms: _446  and  _744
REMARK  187  A    between atoms: _447  and  _449
REMARK  188  A    between atoms: _449  and  _450
REMARK  189  A    between atoms: _449  and  _452
REMARK  190  A    between atoms: _452  and  _453
REMARK  191  A    between atoms: _458  and  _459
REMARK  192  A    between atoms: _461  and  _463
REMARK  193  A    between atoms: _463  and  _464
REMARK  194  A    between atoms: _463  and  _466
REMARK  195  A    between atoms: _466  and  _467
REMARK  196  A    between atoms: _467  and  _468
REMARK  197  A    between atoms: _473  and  _475
REMARK  198  A    between atoms: _475  and  _476
REMARK  199  A    between atoms: _475  and  _478
REMARK  200  A    between atoms: _478  and  _479
REMARK  201  A    between atoms: _479  and  _480
REMARK  202  A    between atoms: _485  and  _487
REMARK  203  A    between atoms: _487  and  _488
REMARK  204  A    between atoms: _487  and  _490
REMARK  205  A    between atoms: _490  and  _491
REMARK  206  A    between atoms: _496  and  _497
REMARK  207  A    between atoms: _499  and  _501
REMARK  208  A    between atoms: _501  and  _502
REMARK  209  A    between atoms: _505  and  _507
REMARK  210  A    between atoms: _507  and  _508
REMARK  211  A    between atoms: _507  and  _510
REMARK  212  A    between atoms: _510  and  _511
REMARK  213  A    between atoms: _516  and  _517
REMARK  214  A    between atoms: _519  and  _521
REMARK  215  A    between atoms: _521  and  _522
REMARK  216  A    between atoms: _521  and  _524
REMARK  217  A    between atoms: _524  and  _525
REMARK  218  A    between atoms: _530  and  _531
REMARK  219  A    between atoms: _533  and  _535
REMARK  220  A    between atoms: _535  and  _536
REMARK  221  A    between atoms: _535  and  _538
REMARK  222  A    between atoms: _538  and  _539
REMARK  223  A    between atoms: _542  and  _544
REMARK  224  A    between atoms: _544  and  _545
REMARK  225  A    between atoms: _544  and  _547
REMARK  226  A    between atoms: _547  and  _548
REMARK  227  A    between atoms: _558  and  _560
REMARK  228  A    between atoms: _560  and  _561
REMARK  229  A    between atoms: _564  and  _566
REMARK  230  A    between atoms: _566  and  _567
REMARK  231  A    between atoms: _570  and  _572
REMARK  232  A    between atoms: _572  and  _573
REMARK  233  A    between atoms: _572  and  _575
REMARK  234  A    between atoms: _575  and  _576
REMARK  235  A    between atoms: _579  and  _581
REMARK  236  A    between atoms: _581  and  _582
REMARK  237  A    between atoms: _581  and  _584
REMARK  238  A    between atoms: _584  and  _585
REMARK  239  A    between atoms: _588  and  _590
REMARK  240  A    between atoms: _590  and  _591
REMARK  241  A    between atoms: _590  and  _593
REMARK  242  A    between atoms: _593  and  _594
REMARK  243  A    between atoms: _597  and  _599
REMARK  244  A    between atoms: _599  and  _600
REMARK  245  A    between atoms: _599  and  _602
REMARK  246  A    between atoms: _602  and  _603
REMARK  247  A    between atoms: _603  and  _604
REMARK  248  A    between atoms: _604  and  _605
REMARK  249  A    between atoms: _605  and  _606
REMARK  250  A    between atoms: _610  and  _612
REMARK  251  A    between atoms: _612  and  _613
REMARK  252  A    between atoms: _612  and  _615
REMARK  253  A    between atoms: _615  and  _616
REMARK  254  A    between atoms: _621  and  _623
REMARK  255  A    between atoms: _623  and  _624
REMARK  256  A    between atoms: _623  and  _626
REMARK  257  A    between atoms: _626  and  _627
REMARK  258  A    between atoms: _627  and  _628
REMARK  259  A    between atoms: _628  and  _629
REMARK  260  A    between atoms: _629  and  _630
REMARK  261  A    between atoms: _634  and  _636
REMARK  262  A    between atoms: _636  and  _637
REMARK  263  A    between atoms: _636  and  _639
REMARK  264  A    between atoms: _639  and  _640
REMARK  265  A    between atoms: _650  and  _652
REMARK  266  A    between atoms: _652  and  _653
REMARK  267  A    between atoms: _656  and  _658
REMARK  268  A    between atoms: _658  and  _659
REMARK  269  A    between atoms: _661  and  _663
REMARK  270  A    between atoms: _663  and  _664
REMARK  271  A    between atoms: _667  and  _669
REMARK  272  A    between atoms: _669  and  _670
REMARK  273  A    between atoms: _673  and  _675
REMARK  274  A    between atoms: _675  and  _676
REMARK  275  A    between atoms: _675  and  _678
REMARK  276  A    between atoms: _678  and  _679
REMARK  277  A    between atoms: _684  and  _685
REMARK  278  A    between atoms: _687  and  _689
REMARK  279  A    between atoms: _689  and  _690
REMARK  280  A    between atoms: _689  and  _692
REMARK  281  A    between atoms: _692  and  _693
REMARK  282  A    between atoms: _698  and  _699
REMARK  283  A    between atoms: _701  and  _703
REMARK  284  A    between atoms: _703  and  _704
REMARK  285  A    between atoms: _703  and  _706
REMARK  286  A    between atoms: _706  and  _707
REMARK  287  A    between atoms: _712  and  _713
REMARK  288  A    between atoms: _715  and  _717
REMARK  289  A    between atoms: _717  and  _718
REMARK  290  A    between atoms: _717  and  _720
REMARK  291  A    between atoms: _720  and  _721
REMARK  292  A    between atoms: _724  and  _726
REMARK  293  A    between atoms: _726  and  _727
REMARK  294  A    between atoms: _729  and  _731
REMARK  295  A    between atoms: _731  and  _732
REMARK  296  A    between atoms: _731  and  _734
REMARK  297  A    between atoms: _734  and  _735
REMARK  298  A    between atoms: _738  and  _740
REMARK  299  A    between atoms: _740  and  _741
REMARK  300  A    between atoms: _740  and  _743
REMARK  301  A    between atoms: _743  and  _744
REMARK  302  A    between atoms: _745  and  _747
REMARK  303  A    between atoms: _747  and  _748
REMARK  304  A    between atoms: _747  and  _750
REMARK  305  A    between atoms: _753  and  _755
REMARK  306  A    between atoms: _755  and  _756
REMARK  307  A    between atoms: _755  and  _758
REMARK  308  A    between atoms: _758  and  _759
REMARK  309  A    between atoms: _759  and  _760
REMARK  310  A    between atoms: _763  and  _765
REMARK  311  A    between atoms: _765  and  _766
REMARK  312  A    between atoms: _765  and  _768
REMARK  313  A    between atoms: _768  and  _769
REMARK  314  A    between atoms: _779  and  _781
REMARK  315  A    between atoms: _781  and  _782
REMARK  316  A    between atoms: _781  and  _784
REMARK  317  A    between atoms: _784  and  _785
REMARK  318  A    between atoms: _788  and  _790
REMARK  319  A    between atoms: _790  and  _791
REMARK  320  A    between atoms: _790  and  _793
REMARK  321  A    between atoms: _793  and  _794
REMARK  322  A    between atoms: _799  and  _800
REMARK                            x       y       z     vdW  Elec       q    Type
REMARK                         _______ _______ _______ _____ _____    ______ ____
ROOT
ATOM      1  CA  GLN A   4      32.128  58.175  -4.198  0.00  0.00    +0.149 C 
ENDROOT
BRANCH   1   2
ATOM      2  C   GLN A   4      32.693  58.174  -5.619  0.00  0.00    +0.241 C 
ATOM      3  N   SER A   5      34.005  58.344  -5.751  0.00  0.00    -0.295 N 
ATOM      4  H   SER A   5      34.598  58.469  -4.906  0.00  0.00    +0.150 HD
ATOM      5  O   GLN A   4      31.947  58.022  -6.585  0.00  0.00    -0.273 OA
BRANCH   3   6
ATOM      6  CA  SER A   5      34.615  58.356  -7.074  0.00  0.00    +0.178 C 
BRANCH   6   7
ATOM      7  C   SER A   5      34.498  56.981  -7.733  0.00  0.00    +0.243 C 
ATOM      8  N   PHE A   6      34.685  55.917  -6.956  0.00  0.00    -0.298 N 
ATOM      9  H   PHE A   6      34.909  56.040  -5.948  0.00  0.00    +0.150 HD
ATOM     10  O   SER A   5      34.231  56.883  -8.932  0.00  0.00    -0.273 OA
BRANCH   8  11
ATOM     11  CA  PHE A   6      34.575  54.575  -7.523  0.00  0.00    +0.141 C 
BRANCH  11  12
ATOM     12  C   PHE A   6      33.135  54.206  -7.854  0.00  0.00    +0.227 C 
ATOM     13  O   PHE A   6      32.884  53.410  -8.761  0.00  0.00    -0.286 OA
ENDBRANCH  11  12
BRANCH  11  14
ATOM     14  CB  PHE A   6      35.238  53.541  -6.600  0.00  0.00    +0.054 C 
BRANCH  14  15
ATOM     15  CG  PHE A   6      36.740  53.563  -6.671  0.00  0.00    -0.020 A 
ATOM     16  CD2 PHE A   6      37.493  54.260  -5.723  0.00  0.00    -0.004 A 
ATOM     17  CE2 PHE A   6      38.878  54.353  -5.836  0.00  0.00    -0.000 A 
ATOM     18  CZ  PHE A   6      39.535  53.746  -6.907  0.00  0.00    -0.000 A 
ATOM     19  CE1 PHE A   6      38.795  53.042  -7.858  0.00  0.00    -0.000 A 
ATOM     20  CD1 PHE A   6      37.404  52.955  -7.733  0.00  0.00    -0.004 A 
ENDBRANCH  14  15
ENDBRANCH  11  14
ENDBRANCH   8  11
ENDBRANCH   6   7
BRANCH   6  21
ATOM     21  CB  SER A   5      36.084  58.782  -6.986  0.00  0.00    +0.166 C 
BRANCH  21  22
ATOM     22  OG  SER A   5      36.870  57.815  -6.318  0.00  0.00    -0.380 OA
ATOM     23  H   SER A   5      36.526  57.690  -5.398  0.00  0.00    +0.211 HD
ENDBRANCH  21  22
ENDBRANCH   6  21
ENDBRANCH   3   6
ENDBRANCH   1   2
BRANCH   1  25
ATOM     24  C   GLU A   3      33.183  56.216  -3.226  0.00  0.00    +0.241 C 
ATOM     25  N   GLN A   4      33.011  57.536  -3.227  0.00  0.00    -0.297 N 
ATOM     26  H   GLN A   4      33.512  58.120  -2.527  0.00  0.00    +0.150 HD
ATOM     27  O   GLU A   3      32.637  55.479  -4.049  0.00  0.00    -0.273 OA
BRANCH  24  28
ATOM     28  CA  GLU A   3      34.130  55.640  -2.163  0.00  0.00    +0.149 C 
BRANCH  28  30
ATOM     29  C   ASN A   2      36.085  56.799  -3.027  0.00  0.00    +0.241 C 
ATOM     30  N   GLU A   3      35.307  56.479  -1.999  0.00  0.00    -0.297 N 
ATOM     31  H   GLU A   3      35.546  56.838  -1.052  0.00  0.00    +0.150 HD
ATOM     32  O   ASN A   2      35.878  56.400  -4.179  0.00  0.00    -0.273 OA
BRANCH  29  33
ATOM     33  CA  ASN A   2      37.271  57.698  -2.709  0.00  0.00    +0.158 C 
BRANCH  33  35
ATOM     34  C   GLY A   1      35.965  59.655  -2.057  0.00  0.00    +0.240 C 
ATOM     35  N   ASN A   2      36.887  58.744  -1.757  0.00  0.00    -0.297 N 
ATOM     36  H   ASN A   2      37.346  58.775  -0.824  0.00  0.00    +0.150 HD
ATOM     37  O   GLY A   1      35.379  59.684  -3.144  0.00  0.00    -0.274 OA
BRANCH  34  38
ATOM     38  CA  GLY A   1      35.656  60.681  -0.978  0.00  0.00    +0.169 C 
BRANCH  38  39
ATOM     39  N   GLY A   1      35.560  60.017   0.310  0.00  0.00    -0.236 NA
ATOM     40  H   GLY A   1      36.296  60.171   1.028  0.00  0.00    +0.142 HD
ENDBRANCH  38  39
ENDBRANCH  34  38
ENDBRANCH  33  35
BRANCH  33  41
ATOM     41  CB  ASN A   2      38.421  56.850  -2.150  0.00  0.00    +0.114 C 
BRANCH  41  42
ATOM     42  CG  ASN A   2      39.698  57.646  -1.955  0.00  0.00    +0.222 C 
ATOM     43  ND2 ASN A   2      40.561  57.168  -1.059  0.00  0.00    -0.329 N 
ATOM     44 HD21 ASN A   2      40.332  56.305  -0.526  0.00  0.00    +0.145 HD
ATOM     45 HD22 ASN A   2      41.463  57.658  -0.893  0.00  0.00    +0.145 HD
ATOM     46  OD1 ASN A   2      39.920  58.667  -2.615  0.00  0.00    -0.275 OA
ENDBRANCH  41  42
ENDBRANCH  33  41
ENDBRANCH  29  33
ENDBRANCH  28  30
BRANCH  28  47
ATOM     47  CB  GLU A   3      33.415  55.498  -0.814  0.00  0.00    +0.041 C 
BRANCH  47  48
ATOM     48  CG  GLU A   3      32.037  54.885  -0.881  0.00  0.00    +0.116 C 
BRANCH  48  49
ATOM     49  CD  GLU A   3      31.480  54.552   0.495  0.00  0.00    +0.365 C 
ATOM     50  OE2 GLU A   3      31.827  55.247   1.474  0.00  0.00    -0.246 OA
ATOM     51  OE1 GLU A   3      30.685  53.598   0.594  0.00  0.00    -0.246 OA
ENDBRANCH  48  49
ENDBRANCH  47  48
ENDBRANCH  28  47
ENDBRANCH  24  28
ENDBRANCH   1  25
BRANCH   1  52
ATOM     52  CB  GLN A   4      31.804  59.612  -3.762  0.00  0.00    +0.039 C 
BRANCH  52  53
ATOM     53  CG  GLN A   4      30.902  59.698  -2.530  0.00  0.00    +0.087 C 
BRANCH  53  54
ATOM     54  CD  GLN A   4      29.680  58.781  -2.621  0.00  0.00    +0.219 C 
ATOM     55  OE1 GLN A   4      29.773  57.570  -2.391  0.00  0.00    -0.275 OA
ATOM     56  NE2 GLN A   4      28.532  59.358  -2.967  0.00  0.00    -0.329 N 
ATOM     57 HE21 GLN A   4      27.668  58.786  -3.053  0.00  0.00    +0.145 HD
ATOM     58 HE22 GLN A   4      28.499  60.381  -3.152  0.00  0.00    +0.145 HD
ENDBRANCH  53  54
ENDBRANCH  52  53
ENDBRANCH   1  52
TORSDOF 24
REMARK  Name = ../refined-set-2016/1fzk/1fzk_pocket.pdb
REMARK  322 active torsions:
REMARK  status: ('A' for Active; 'I' for Inactive)
REMARK    1  A    between atoms: _1  and  _3
REMARK    2  A    between atoms: _3  and  _4
REMARK    3  A    between atoms: _3  and  _6
REMARK    4  A    between atoms: _6  and  _7
REMARK    5  A    between atoms: _10  and  _12
REMARK    6  A    between atoms: _12  and  _13
REMARK    7  A    between atoms: _12  and  _15
REMARK    8  A    between atoms: _15  and  _16
REMARK    9  A    between atoms: _16  and  _17
REMARK   10  A    between atoms: _17  and  _18
REMARK   11  A    between atoms: _27  and  _29
REMARK   12  A    between atoms: _29  and  _30
REMARK   13  A    between atoms: _29  and  _32
REMARK   14  A    between atoms: _32  and  _33
REMARK   15  A    between atoms: _38  and  _39
REMARK   16  A    between atoms: _41  and  _43
REMARK   17  A    between atoms: _43  and  _44
REMARK   18  A    between atoms: _43  and  _46
REMARK   19  A    between atoms: _46  and  _47
REMARK   20  A    between atoms: _53  and  _55
REMARK   21  A    between atoms: _55  and  _56
REMARK   22  A    between atoms: _55  and  _58
REMARK   23  A    between atoms: _61  and  _63
REMARK   24  A    between atoms: _63  and  _64
REMARK   25  A    between atoms: _63  and  _66
REMARK   26  A    between atoms: _66  and  _67
REMARK   27  A    between atoms: _70  and  _72
REMARK   28  A    between atoms: _72  and  _73
REMARK   29  A    between atoms: _72  and  _75
REMARK   30  A    between atoms: _75  and  _76
REMARK   31  A    between atoms: _81  and  _82
REMARK   32  A    between atoms: _84  and  _86
REMARK   33  A    between atoms: _86  and  _87
REMARK   34  A    between atoms: _86  and  _89
REMARK   35  A    between atoms: _89  and  _90
REMARK   36  A    between atoms: _90  and  _91
REMARK   37  A    between atoms: _93  and  _95
REMARK   38  A    between atoms: _95  and  _96
REMARK   39  A    between atoms: _95  and  _98
REMARK   40  A    between atoms: _98  and  _99
REMARK   41  A    between atoms: _99  and  _100
REMARK   42  A    between atoms: _103  and  _105
REMARK   43  A    between atoms: _105  and  _106
REMARK   44  A    between atoms: _105  and  _108
REMARK   45  A    between atoms: _111  and  _113
REMARK   46  A    between atoms: _113  and  _114
REMARK   47  A    between atoms: _116  and  _118
REMARK   48  A    between atoms: _118  and  _119
REMARK   49  A    between atoms: _118  and  _121
REMARK   50  A    between atoms: _124  and  _126
REMARK   51  A    between atoms: _126  and  _127
REMARK   52  A    between atoms: _126  and  _129
REMARK   53  A    between atoms: _129  and  _130
REMARK   54  A    between atoms: _136  and  _138
REMARK   55  A    between atoms: _138  and  _139
REMARK   56  A    between atoms: _138  and  _141
REMARK   57  A    between atoms: _144  and  _146
REMARK   58  A    between atoms: _146  and  _147
REMARK   59  A    between atoms: _146  and  _149
REMARK   60  A    between atoms: _149  and  _150
REMARK   61  A    between atoms: _155  and  _156
REMARK   62  A    between atoms: _158  and  _160
REMARK   63  A    between atoms: _160  and  _161
REMARK   64  A    between atoms: _160  and  _163
REMARK   65  A    between atoms: _163  and  _164
REMARK   66  A    between atoms: _164  and  _165
REMARK   67  A    between atoms: _167  and  _169
REMARK   68  A    between atoms: _169  and  _170
REMARK   69  A    between atoms: _169  and  _172
REMARK   70  A    between atoms: _172  and  _173
REMARK   71  A    between atoms: _173  and  _174
REMARK   72  A    between atoms: _177  and  _179
REMARK   73  A    between atoms: _179  and  _180
REMARK   74  A    between atoms: _179  and  _182
REMARK   75  A    between atoms: _182  and  _183
REMARK   76  A    between atoms: _183  and  _184
REMARK   77  A    between atoms: _187  and  _189
REMARK   78  A    between atoms: _189  and  _190
REMARK   79  A    between atoms: _189  and  _192
REMARK   80  A    between atoms: _192  and  _193
REMARK   81  A    between atoms: _198  and  _199
REMARK   82  A    between atoms: _201  and  _203
REMARK   83  A    between atoms: _203  and  _204
REMARK   84  A    between atoms: _203  and  _206
REMARK   85  A    between atoms: _206  and  _207
REMARK   86  A    between atoms: _207  and  _208
REMARK   87  A    between atoms: _208  and  _209
REMARK   88  A    between atoms: _218  and  _220
REMARK   89  A    between atoms: _220  and  _221
REMARK   90  A    between atoms: _220  and  _223
REMARK   91  A    between atoms: _223  and  _224
REMARK   92  A    between atoms: _224  and  _225
REMARK   93  A    between atoms: _228  and  _230
REMARK   94  A    between atoms: _230  and  _231
REMARK   95  A    between atoms: _230  and  _233
REMARK   96  A    between atoms: _233  and  _234
REMARK   97  A    between atoms: _234  and  _235
REMARK   98  A    between atoms: _240  and  _242
REMARK   99  A    between atoms: _242  and  _243
REMARK  100  A    between atoms: _242  and  _245
REMARK  101  A    between atoms: _245  and  _246
REMARK  102  A    between atoms: _246  and  _247
REMARK  103  A    between atoms: _247  and  _248
REMARK  104  A    between atoms: _248  and  _249
REMARK  105  A    between atoms: _253  and  _255
REMARK  106  A    between atoms: _255  and  _256
REMARK  107  A    between atoms: _259  and  _261
REMARK  108  A    between atoms: _261  and  _262
REMARK  109  A    between atoms: _264  and  _266
REMARK  110  A    between atoms: _266  and  _267
REMARK  111  A    between atoms: _266  and  _269
REMARK  112  A    between atoms: _269  and  _270
REMARK  113  A    between atoms: _275  and  _277
REMARK  114  A    between atoms: _277  and  _278
REMARK  115  A    between atoms: _277  and  _280
REMARK  116  A    between atoms: _280  and  _281
REMARK  117  A    between atoms: _281  and  _282
REMARK  118  A    between atoms: _285  and  _287
REMARK  119  A    between atoms: _287  and  _288
REMARK  120  A    between atoms: _287  and  _290
REMARK  121  A    between atoms: _290  and  _291
REMARK  122  A    between atoms: _291  and  _292
REMARK  123  A    between atoms: _297  and  _299
REMARK  124  A    between atoms: _299  and  _300
REMARK  125  A    between atoms: _299  and  _302
REMARK  126  A    between atoms: _302  and  _303
REMARK  127  A    between atoms: _305  and  _307
REMARK  128  A    between atoms: _307  and  _308
REMARK  129  A    between atoms: _307  and  _310
REMARK  130  A    between atoms: _310  and  _311
REMARK  131  A    between atoms: _317  and  _319
REMARK  132  A    between atoms: _319  and  _320
REMARK  133  A    between atoms: _319  and  _322
REMARK  134  A    between atoms: _325  and  _327
REMARK  135  A    between atoms: _327  and  _328
REMARK  136  A    between atoms: _327  and  _330
REMARK  137  A    between atoms: _330  and  _331
REMARK  138  A    between atoms: _334  and  _336
REMARK  139  A    between atoms: _336  and  _337
REMARK  140  A    between atoms: _336  and  _339
REMARK  141  A    between atoms: _339  and  _340
REMARK  142  A    between atoms: _343  and  _345
REMARK  143  A    between atoms: _345  and  _346
REMARK  144  A    between atoms: _345  and  _348
REMARK  145  A    between atoms: _348  and  _349
REMARK  146  A    between atoms: _352  and  _354
REMARK  147  A    between atoms: _354  and  _355
REMARK  148  A    between atoms: _354  and  _357
REMARK  149  A    between atoms: _357  and  _358
REMARK  150  A    between atoms: _361  and  _363
REMARK  151  A    between atoms: _363  and  _364
REMARK  152  A    between atoms: _363  and  _366
REMARK  153  A    between atoms: _366  and  _367
REMARK  154  A    between atoms: _372  and  _373
REMARK  155  A    between atoms: _375  and  _377
REMARK  156  A    between atoms: _377  and  _378
REMARK  157  A    between atoms: _377  and  _380
REMARK  158  A    between atoms: _380  and  _381
REMARK  159  A    between atoms: _386  and  _387
REMARK  160  A    between atoms: _389  and  _391
REMARK  161  A    between atoms: _391  and  _392
REMARK  162  A    between atoms: _391  and  _394
REMARK  163  A    between atoms: _394  and  _395
REMARK  164  A    between atoms: _398  and  _400
REMARK  165  A    between atoms: _400  and  _401
REMARK  166  A    between atoms: _400  and  _403
REMARK  167  A    between atoms: _403  and  _404
REMARK  168  A    between atoms: _404  and  _405
REMARK  169  A    between atoms: _410  and  _412
REMARK  170  A    between atoms: _412  and  _413
REMARK  171  A    between atoms: _412  and  _415
REMARK  172  A    between atoms: _418  and  _420
REMARK  173  A    between atoms: _420  and  _421
REMARK  174  A    between atoms: _420  and  _423
REMARK  175  A    between atoms: _423  and  _424
REMARK  176  A    between atoms: _427  and  _429
REMARK  177  A    between atoms: _429  and  _430
REMARK  178  A    between atoms: _429  and  _432
REMARK  179  A    between atoms: _432  and  _433
REMARK  180  A    between atoms: _435  and  _437
REMARK  181  A    between atoms: _437  and  _438
REMARK  182  A    between atoms: _440  and  _442
REMARK  183  A    between atoms: _442  and  _443
REMARK  184  A    between atoms: _442  and  _445
REMARK  185  A    between atoms: _445  and  _446
REMARK  186  A    between atoms: _446  and  _744
REMARK  187  A    between atoms: _447  and  _449
REMARK  188  A    between atoms: _449  and  _450
REMARK  189  A    between atoms: _449  and  _452
REMARK  190  A    between atoms: _452  and  _453
REMARK  191  A    between atoms: _458  and  _459
REMARK  192  A    between atoms: _461  and  _463
REMARK  193  A    between atoms: _463  and  _464
REMARK  194  A    between atoms: _463  and  _466
REMARK  195  A    between atoms: _466  and  _467
REMARK  196  A    between atoms: _467  and  _468
REMARK  197  A    between atoms: _473  and  _475
REMARK  198  A    between atoms: _475  and  _476
REMARK  199  A    between atoms: _475  and  _478
REMARK  200  A    between atoms: _478  and  _479
REMARK  201  A    between atoms: _479  and  _480
REMARK  202  A    between atoms: _485  and  _487
REMARK  203  A    between atoms: _487  and  _488
REMARK  204  A    between atoms: _487  and  _490
REMARK  205  A    between atoms: _490  and  _491
REMARK  206  A    between atoms: _496  and  _497
REMARK  207  A    between atoms: _499  and  _501
REMARK  208  A    between atoms: _501  and  _502
REMARK  209  A    between atoms: _505  and  _507
REMARK  210  A    between atoms: _507  and  _508
REMARK  211  A    between atoms: _507  and  _510
REMARK  212  A    between atoms: _510  and  _511
REMARK  213  A    between atoms: _516  and  _517
REMARK  214  A    between atoms: _519  and  _521
REMARK  215  A    between atoms: _521  and  _522
REMARK  216  A    between atoms: _521  and  _524
REMARK  217  A    between atoms: _524  and  _525
REMARK  218  A    between atoms: _530  and  _531
REMARK  219  A    between atoms: _533  and  _535
REMARK  220  A    between atoms: _535  and  _536
REMARK  221  A    between atoms: _535  and  _538
REMARK  222  A    between atoms: _538  and  _539
REMARK  223  A    between atoms: _542  and  _544
REMARK  224  A    between atoms: _544  and  _545
REMARK  225  A    between atoms: _544  and  _547
REMARK  226  A    between atoms: _547  and  _548
REMARK  227  A    between atoms: _558  and  _560
REMARK  228  A    between atoms: _560  and  _561
REMARK  229  A    between atoms: _564  and  _566
REMARK  230  A    between atoms: _566  and  _567
REMARK  231  A    between atoms: _570  and  _572
REMARK  232  A    between atoms: _572  and  _573
REMARK  233  A    between atoms: _572  and  _575
REMARK  234  A    between atoms: _575  and  _576
REMARK  235  A    between atoms: _579  and  _581
REMARK  236  A    between atoms: _581  and  _582
REMARK  237  A    between atoms: _581  and  _584
REMARK  238  A    between atoms: _584  and  _585
REMARK  239  A    between atoms: _588  and  _590
REMARK  240  A    between atoms: _590  and  _591
REMARK  241  A    between atoms: _590  and  _593
REMARK  242  A    between atoms: _593  and  _594
REMARK  243  A    between atoms: _597  and  _599
REMARK  244  A    between atoms: _599  and  _600
REMARK  245  A    between atoms: _599  and  _602
REMARK  246  A    between atoms: _602  and  _603
REMARK  247  A    between atoms: _603  and  _604
REMARK  248  A    between atoms: _604  and  _605
REMARK  249  A    between atoms: _605  and  _606
REMARK  250  A    between atoms: _610  and  _612
REMARK  251  A    between atoms: _612  and  _613
REMARK  252  A    between atoms: _612  and  _615
REMARK  253  A    between atoms: _615  and  _616
REMARK  254  A    between atoms: _621  and  _623
REMARK  255  A    between atoms: _623  and  _624
REMARK  256  A    between atoms: _623  and  _626
REMARK  257  A    between atoms: _626  and  _627
REMARK  258  A    between atoms: _627  and  _628
REMARK  259  A    between atoms: _628  and  _629
REMARK  260  A    between atoms: _629  and  _630
REMARK  261  A    between atoms: _634  and  _636
REMARK  262  A    between atoms: _636  and  _637
REMARK  263  A    between atoms: _636  and  _639
REMARK  264  A    between atoms: _639  and  _640
REMARK  265  A    between atoms: _650  and  _652
REMARK  266  A    between atoms: _652  and  _653
REMARK  267  A    between atoms: _656  and  _658
REMARK  268  A    between atoms: _658  and  _659
REMARK  269  A    between atoms: _661  and  _663
REMARK  270  A    between atoms: _663  and  _664
REMARK  271  A    between atoms: _667  and  _669
REMARK  272  A    between atoms: _669  and  _670
REMARK  273  A    between atoms: _673  and  _675
REMARK  274  A    between atoms: _675  and  _676
REMARK  275  A    between atoms: _675  and  _678
REMARK  276  A    between atoms: _678  and  _679
REMARK  277  A    between atoms: _684  and  _685
REMARK  278  A    between atoms: _687  and  _689
REMARK  279  A    between atoms: _689  and  _690
REMARK  280  A    between atoms: _689  and  _692
REMARK  281  A    between atoms: _692  and  _693
REMARK  282  A    between atoms: _698  and  _699
REMARK  283  A    between atoms: _701  and  _703
REMARK  284  A    between atoms: _703  and  _704
REMARK  285  A    between atoms: _703  and  _706
REMARK  286  A    between atoms: _706  and  _707
REMARK  287  A    between atoms: _712  and  _713
REMARK  288  A    between atoms: _715  and  _717
REMARK  289  A    between atoms: _717  and  _718
REMARK  290  A    between atoms: _717  and  _720
REMARK  291  A    between atoms: _720  and  _721
REMARK  292  A    between atoms: _724  and  _726
REMARK  293  A    between atoms: _726  and  _727
REMARK  294  A    between atoms: _729  and  _731
REMARK  295  A    between atoms: _731  and  _732
REMARK  296  A    between atoms: _731  and  _734
REMARK  297  A    between atoms: _734  and  _735
REMARK  298  A    between atoms: _738  and  _740
REMARK  299  A    between atoms: _740  and  _741
REMARK  300  A    between atoms: _740  and  _743
REMARK  301  A    between atoms: _743  and  _744
REMARK  302  A    between atoms: _745  and  _747
REMARK  303  A    between atoms: _747  and  _748
REMARK  304  A    between atoms: _747  and  _750
REMARK  305  A    between atoms: _753  and  _755
REMARK  306  A    between atoms: _755  and  _756
REMARK  307  A    between atoms: _755  and  _758
REMARK  308  A    between atoms: _758  and  _759
REMARK  309  A    between atoms: _759  and  _760
REMARK  310  A    between atoms: _763  and  _765
REMARK  311  A    between atoms: _765  and  _766
REMARK  312  A    between atoms: _765  and  _768
REMARK  313  A    between atoms: _768  and  _769
REMARK  314  A    between atoms: _779  and  _781
REMARK  315  A    between atoms: _781  and  _782
REMARK  316  A    between atoms: _781  and  _784
REMARK  317  A    between atoms: _784  and  _785
REMARK  318  A    between atoms: _788  and  _790
REMARK  319  A    between atoms: _790  and  _791
REMARK  320  A    between atoms: _790  and  _793
REMARK  321  A    between atoms: _793  and  _794
REMARK  322  A    between atoms: _799  and  _800
REMARK                            x       y       z     vdW  Elec       q    Type
REMARK                         _______ _______ _______ _____ _____    ______ ____
ROOT
ATOM      1  CA  ASP A   2      33.561  54.699 -12.116  0.00  0.00    +0.160 C 
ENDROOT
BRANCH   1   3
ATOM      2  C   VAL A   1      31.595  56.021 -11.509  0.00  0.00    +0.238 C 
ATOM      3  N   ASP A   2      32.790  55.526 -11.182  0.00  0.00    -0.297 N 
ATOM      4  H   ASP A   2      33.184  55.732 -10.242  0.00  0.00    +0.150 HD
ATOM      5  O   VAL A   1      31.061  55.818 -12.606  0.00  0.00    -0.274 OA
BRANCH   2   6
ATOM      6  CA  VAL A   1      30.881  56.859 -10.445  0.00  0.00    +0.145 C 
BRANCH   6   7
ATOM      7  CB  VAL A   1      31.422  58.309 -10.470  0.00  0.00    +0.025 C 
ATOM      8  CG2 VAL A   1      30.589  59.174  -9.533  0.00  0.00    +0.002 C 
ATOM      9  CG1 VAL A   1      31.364  58.868 -11.892  0.00  0.00    +0.002 C 
ENDBRANCH   6   7
BRANCH   6  10
ATOM     10  N   VAL A   1      31.058  56.255  -9.129  0.00  0.00    -0.238 NA
ATOM     11  H   VAL A   1      31.643  56.742  -8.420  0.00  0.00    +0.142 HD
ENDBRANCH   6  10
ENDBRANCH   2   6
ENDBRANCH   1   3
BRANCH   1  12
ATOM     12  C   ASP A   2      32.775  53.464 -12.554  0.00  0.00    +0.241 C 
ATOM     13  N   LEU A   3      32.067  52.843 -11.612  0.00  0.00    -0.298 N 
ATOM     14  H   LEU A   3      32.072  53.208 -10.638  0.00  0.00    +0.150 HD
ATOM     15  O   ASP A   2      32.826  53.064 -13.723  0.00  0.00    -0.273 OA
BRANCH  13  16
ATOM     16  CA  LEU A   3      31.283  51.653 -11.935  0.00  0.00    +0.137 C 
BRANCH  16  17
ATOM     17  C   LEU A   3      30.226  51.963 -13.004  0.00  0.00    +0.227 C 
ATOM     18  O   LEU A   3      30.011  51.163 -13.919  0.00  0.00    -0.286 OA
ENDBRANCH  16  17
BRANCH  16  19
ATOM     19  CB  LEU A   3      30.645  51.073 -10.657  0.00  0.00    +0.028 C 
BRANCH  19  20
ATOM     20  CG  LEU A   3      31.642  50.365  -9.718  0.00  0.00    +0.002 C 
ATOM     21  CD2 LEU A   3      31.029  50.156  -8.331  0.00  0.00    +0.000 C 
ATOM     22  CD1 LEU A   3      32.069  49.021 -10.331  0.00  0.00    +0.000 C 
ENDBRANCH  19  20
ENDBRANCH  16  19
ENDBRANCH  13  16
ENDBRANCH   1  12
BRANCH   1  23
ATOM     23  CB  ASP A   2      34.872  54.206 -11.485  0.00  0.00    +0.143 C 
BRANCH  23  24
ATOM     24  CG  ASP A   2      35.859  55.319 -11.198  0.00  0.00    +0.367 C 
ATOM     25  OD2 ASP A   2      36.709  55.118 -10.305  0.00  0.00    -0.246 OA
ATOM     26  OD1 ASP A   2      35.815  56.375 -11.867  0.00  0.00    -0.246 OA
ENDBRANCH  23  24
ENDBRANCH   1  23
TORSDOF 11
REMARK  Name = ../refined-set-2016/1fzk/1fzk_pocket.pdb
REMARK  322 active torsions:
REMARK  status: ('A' for Active; 'I' for Inactive)
REMARK    1  A    between atoms: _1  and  _3
REMARK    2  A    between atoms: _3  and  _4
REMARK    3  A    between atoms: _3  and  _6
REMARK    4  A    between atoms: _6  and  _7
REMARK    5  A    between atoms: _10  and  _12
REMARK    6  A    between atoms: _12  and  _13
REMARK    7  A    between atoms: _12  and  _15
REMARK    8  A    between atoms: _15  and  _16
REMARK    9  A    between atoms: _16  and  _17
REMARK   10  A    between atoms: _17  and  _18
REMARK   11  A    between atoms: _27  and  _29
REMARK   12  A    between atoms: _29  and  _30
REMARK   13  A    between atoms: _29  and  _32
REMARK   14  A    between atoms: _32  and  _33
REMARK   15  A    between atoms: _38  and  _39
REMARK   16  A    between atoms: _41  and  _43
REMARK   17  A    between atoms: _43  and  _44
REMARK   18  A    between atoms: _43  and  _46
REMARK   19  A    between atoms: _46  and  _47
REMARK   20  A    between atoms: _53  and  _55
REMARK   21  A    between atoms: _55  and  _56
REMARK   22  A    between atoms: _55  and  _58
REMARK   23  A    between atoms: _61  and  _63
REMARK   24  A    between atoms: _63  and  _64
REMARK   25  A    between atoms: _63  and  _66
REMARK   26  A    between atoms: _66  and  _67
REMARK   27  A    between atoms: _70  and  _72
REMARK   28  A    between atoms: _72  and  _73
REMARK   29  A    between atoms: _72  and  _75
REMARK   30  A    between atoms: _75  and  _76
REMARK   31  A    between atoms: _81  and  _82
REMARK   32  A    between atoms: _84  and  _86
REMARK   33  A    between atoms: _86  and  _87
REMARK   34  A    between atoms: _86  and  _89
REMARK   35  A    between atoms: _89  and  _90
REMARK   36  A    between atoms: _90  and  _91
REMARK   37  A    between atoms: _93  and  _95
REMARK   38  A    between atoms: _95  and  _96
REMARK   39  A    between atoms: _95  and  _98
REMARK   40  A    between atoms: _98  and  _99
REMARK   41  A    between atoms: _99  and  _100
REMARK   42  A    between atoms: _103  and  _105
REMARK   43  A    between atoms: _105  and  _106
REMARK   44  A    between atoms: _105  and  _108
REMARK   45  A    between atoms: _111  and  _113
REMARK   46  A    between atoms: _113  and  _114
REMARK   47  A    between atoms: _116  and  _118
REMARK   48  A    between atoms: _118  and  _119
REMARK   49  A    between atoms: _118  and  _121
REMARK   50  A    between atoms: _124  and  _126
REMARK   51  A    between atoms: _126  and  _127
REMARK   52  A    between atoms: _126  and  _129
REMARK   53  A    between atoms: _129  and  _130
REMARK   54  A    between atoms: _136  and  _138
REMARK   55  A    between atoms: _138  and  _139
REMARK   56  A    between atoms: _138  and  _141
REMARK   57  A    between atoms: _144  and  _146
REMARK   58  A    between atoms: _146  and  _147
REMARK   59  A    between atoms: _146  and  _149
REMARK   60  A    between atoms: _149  and  _150
REMARK   61  A    between atoms: _155  and  _156
REMARK   62  A    between atoms: _158  and  _160
REMARK   63  A    between atoms: _160  and  _161
REMARK   64  A    between atoms: _160  and  _163
REMARK   65  A    between atoms: _163  and  _164
REMARK   66  A    between atoms: _164  and  _165
REMARK   67  A    between atoms: _167  and  _169
REMARK   68  A    between atoms: _169  and  _170
REMARK   69  A    between atoms: _169  and  _172
REMARK   70  A    between atoms: _172  and  _173
REMARK   71  A    between atoms: _173  and  _174
REMARK   72  A    between atoms: _177  and  _179
REMARK   73  A    between atoms: _179  and  _180
REMARK   74  A    between atoms: _179  and  _182
REMARK   75  A    between atoms: _182  and  _183
REMARK   76  A    between atoms: _183  and  _184
REMARK   77  A    between atoms: _187  and  _189
REMARK   78  A    between atoms: _189  and  _190
REMARK   79  A    between atoms: _189  and  _192
REMARK   80  A    between atoms: _192  and  _193
REMARK   81  A    between atoms: _198  and  _199
REMARK   82  A    between atoms: _201  and  _203
REMARK   83  A    between atoms: _203  and  _204
REMARK   84  A    between atoms: _203  and  _206
REMARK   85  A    between atoms: _206  and  _207
REMARK   86  A    between atoms: _207  and  _208
REMARK   87  A    between atoms: _208  and  _209
REMARK   88  A    between atoms: _218  and  _220
REMARK   89  A    between atoms: _220  and  _221
REMARK   90  A    between atoms: _220  and  _223
REMARK   91  A    between atoms: _223  and  _224
REMARK   92  A    between atoms: _224  and  _225
REMARK   93  A    between atoms: _228  and  _230
REMARK   94  A    between atoms: _230  and  _231
REMARK   95  A    between atoms: _230  and  _233
REMARK   96  A    between atoms: _233  and  _234
REMARK   97  A    between atoms: _234  and  _235
REMARK   98  A    between atoms: _240  and  _242
REMARK   99  A    between atoms: _242  and  _243
REMARK  100  A    between atoms: _242  and  _245
REMARK  101  A    between atoms: _245  and  _246
REMARK  102  A    between atoms: _246  and  _247
REMARK  103  A    between atoms: _247  and  _248
REMARK  104  A    between atoms: _248  and  _249
REMARK  105  A    between atoms: _253  and  _255
REMARK  106  A    between atoms: _255  and  _256
REMARK  107  A    between atoms: _259  and  _261
REMARK  108  A    between atoms: _261  and  _262
REMARK  109  A    between atoms: _264  and  _266
REMARK  110  A    between atoms: _266  and  _267
REMARK  111  A    between atoms: _266  and  _269
REMARK  112  A    between atoms: _269  and  _270
REMARK  113  A    between atoms: _275  and  _277
REMARK  114  A    between atoms: _277  and  _278
REMARK  115  A    between atoms: _277  and  _280
REMARK  116  A    between atoms: _280  and  _281
REMARK  117  A    between atoms: _281  and  _282
REMARK  118  A    between atoms: _285  and  _287
REMARK  119  A    between atoms: _287  and  _288
REMARK  120  A    between atoms: _287  and  _290
REMARK  121  A    between atoms: _290  and  _291
REMARK  122  A    between atoms: _291  and  _292
REMARK  123  A    between atoms: _297  and  _299
REMARK  124  A    between atoms: _299  and  _300
REMARK  125  A    between atoms: _299  and  _302
REMARK  126  A    between atoms: _302  and  _303
REMARK  127  A    between atoms: _305  and  _307
REMARK  128  A    between atoms: _307  and  _308
REMARK  129  A    between atoms: _307  and  _310
REMARK  130  A    between atoms: _310  and  _311
REMARK  131  A    between atoms: _317  and  _319
REMARK  132  A    between atoms: _319  and  _320
REMARK  133  A    between atoms: _319  and  _322
REMARK  134  A    between atoms: _325  and  _327
REMARK  135  A    between atoms: _327  and  _328
REMARK  136  A    between atoms: _327  and  _330
REMARK  137  A    between atoms: _330  and  _331
REMARK  138  A    between atoms: _334  and  _336
REMARK  139  A    between atoms: _336  and  _337
REMARK  140  A    between atoms: _336  and  _339
REMARK  141  A    between atoms: _339  and  _340
REMARK  142  A    between atoms: _343  and  _345
REMARK  143  A    between atoms: _345  and  _346
REMARK  144  A    between atoms: _345  and  _348
REMARK  145  A    between atoms: _348  and  _349
REMARK  146  A    between atoms: _352  and  _354
REMARK  147  A    between atoms: _354  and  _355
REMARK  148  A    between atoms: _354  and  _357
REMARK  149  A    between atoms: _357  and  _358
REMARK  150  A    between atoms: _361  and  _363
REMARK  151  A    between atoms: _363  and  _364
REMARK  152  A    between atoms: _363  and  _366
REMARK  153  A    between atoms: _366  and  _367
REMARK  154  A    between atoms: _372  and  _373
REMARK  155  A    between atoms: _375  and  _377
REMARK  156  A    between atoms: _377  and  _378
REMARK  157  A    between atoms: _377  and  _380
REMARK  158  A    between atoms: _380  and  _381
REMARK  159  A    between atoms: _386  and  _387
REMARK  160  A    between atoms: _389  and  _391
REMARK  161  A    between atoms: _391  and  _392
REMARK  162  A    between atoms: _391  and  _394
REMARK  163  A    between atoms: _394  and  _395
REMARK  164  A    between atoms: _398  and  _400
REMARK  165  A    between atoms: _400  and  _401
REMARK  166  A    between atoms: _400  and  _403
REMARK  167  A    between atoms: _403  and  _404
REMARK  168  A    between atoms: _404  and  _405
REMARK  169  A    between atoms: _410  and  _412
REMARK  170  A    between atoms: _412  and  _413
REMARK  171  A    between atoms: _412  and  _415
REMARK  172  A    between atoms: _418  and  _420
REMARK  173  A    between atoms: _420  and  _421
REMARK  174  A    between atoms: _420  and  _423
REMARK  175  A    between atoms: _423  and  _424
REMARK  176  A    between atoms: _427  and  _429
REMARK  177  A    between atoms: _429  and  _430
REMARK  178  A    between atoms: _429  and  _432
REMARK  179  A    between atoms: _432  and  _433
REMARK  180  A    between atoms: _435  and  _437
REMARK  181  A    between atoms: _437  and  _438
REMARK  182  A    between atoms: _440  and  _442
REMARK  183  A    between atoms: _442  and  _443
REMARK  184  A    between atoms: _442  and  _445
REMARK  185  A    between atoms: _445  and  _446
REMARK  186  A    between atoms: _446  and  _744
REMARK  187  A    between atoms: _447  and  _449
REMARK  188  A    between atoms: _449  and  _450
REMARK  189  A    between atoms: _449  and  _452
REMARK  190  A    between atoms: _452  and  _453
REMARK  191  A    between atoms: _458  and  _459
REMARK  192  A    between atoms: _461  and  _463
REMARK  193  A    between atoms: _463  and  _464
REMARK  194  A    between atoms: _463  and  _466
REMARK  195  A    between atoms: _466  and  _467
REMARK  196  A    between atoms: _467  and  _468
REMARK  197  A    between atoms: _473  and  _475
REMARK  198  A    between atoms: _475  and  _476
REMARK  199  A    between atoms: _475  and  _478
REMARK  200  A    between atoms: _478  and  _479
REMARK  201  A    between atoms: _479  and  _480
REMARK  202  A    between atoms: _485  and  _487
REMARK  203  A    between atoms: _487  and  _488
REMARK  204  A    between atoms: _487  and  _490
REMARK  205  A    between atoms: _490  and  _491
REMARK  206  A    between atoms: _496  and  _497
REMARK  207  A    between atoms: _499  and  _501
REMARK  208  A    between atoms: _501  and  _502
REMARK  209  A    between atoms: _505  and  _507
REMARK  210  A    between atoms: _507  and  _508
REMARK  211  A    between atoms: _507  and  _510
REMARK  212  A    between atoms: _510  and  _511
REMARK  213  A    between atoms: _516  and  _517
REMARK  214  A    between atoms: _519  and  _521
REMARK  215  A    between atoms: _521  and  _522
REMARK  216  A    between atoms: _521  and  _524
REMARK  217  A    between atoms: _524  and  _525
REMARK  218  A    between atoms: _530  and  _531
REMARK  219  A    between atoms: _533  and  _535
REMARK  220  A    between atoms: _535  and  _536
REMARK  221  A    between atoms: _535  and  _538
REMARK  222  A    between atoms: _538  and  _539
REMARK  223  A    between atoms: _542  and  _544
REMARK  224  A    between atoms: _544  and  _545
REMARK  225  A    between atoms: _544  and  _547
REMARK  226  A    between atoms: _547  and  _548
REMARK  227  A    between atoms: _558  and  _560
REMARK  228  A    between atoms: _560  and  _561
REMARK  229  A    between atoms: _564  and  _566
REMARK  230  A    between atoms: _566  and  _567
REMARK  231  A    between atoms: _570  and  _572
REMARK  232  A    between atoms: _572  and  _573
REMARK  233  A    between atoms: _572  and  _575
REMARK  234  A    between atoms: _575  and  _576
REMARK  235  A    between atoms: _579  and  _581
REMARK  236  A    between atoms: _581  and  _582
REMARK  237  A    between atoms: _581  and  _584
REMARK  238  A    between atoms: _584  and  _585
REMARK  239  A    between atoms: _588  and  _590
REMARK  240  A    between atoms: _590  and  _591
REMARK  241  A    between atoms: _590  and  _593
REMARK  242  A    between atoms: _593  and  _594
REMARK  243  A    between atoms: _597  and  _599
REMARK  244  A    between atoms: _599  and  _600
REMARK  245  A    between atoms: _599  and  _602
REMARK  246  A    between atoms: _602  and  _603
REMARK  247  A    between atoms: _603  and  _604
REMARK  248  A    between atoms: _604  and  _605
REMARK  249  A    between atoms: _605  and  _606
REMARK  250  A    between atoms: _610  and  _612
REMARK  251  A    between atoms: _612  and  _613
REMARK  252  A    between atoms: _612  and  _615
REMARK  253  A    between atoms: _615  and  _616
REMARK  254  A    between atoms: _621  and  _623
REMARK  255  A    between atoms: _623  and  _624
REMARK  256  A    between atoms: _623  and  _626
REMARK  257  A    between atoms: _626  and  _627
REMARK  258  A    between atoms: _627  and  _628
REMARK  259  A    between atoms: _628  and  _629
REMARK  260  A    between atoms: _629  and  _630
REMARK  261  A    between atoms: _634  and  _636
REMARK  262  A    between atoms: _636  and  _637
REMARK  263  A    between atoms: _636  and  _639
REMARK  264  A    between atoms: _639  and  _640
REMARK  265  A    between atoms: _650  and  _652
REMARK  266  A    between atoms: _652  and  _653
REMARK  267  A    between atoms: _656  and  _658
REMARK  268  A    between atoms: _658  and  _659
REMARK  269  A    between atoms: _661  and  _663
REMARK  270  A    between atoms: _663  and  _664
REMARK  271  A    between atoms: _667  and  _669
REMARK  272  A    between atoms: _669  and  _670
REMARK  273  A    between atoms: _673  and  _675
REMARK  274  A    between atoms: _675  and  _676
REMARK  275  A    between atoms: _675  and  _678
REMARK  276  A    between atoms: _678  and  _679
REMARK  277  A    between atoms: _684  and  _685
REMARK  278  A    between atoms: _687  and  _689
REMARK  279  A    between atoms: _689  and  _690
REMARK  280  A    between atoms: _689  and  _692
REMARK  281  A    between atoms: _692  and  _693
REMARK  282  A    between atoms: _698  and  _699
REMARK  283  A    between atoms: _701  and  _703
REMARK  284  A    between atoms: _703  and  _704
REMARK  285  A    between atoms: _703  and  _706
REMARK  286  A    between atoms: _706  and  _707
REMARK  287  A    between atoms: _712  and  _713
REMARK  288  A    between atoms: _715  and  _717
REMARK  289  A    between atoms: _717  and  _718
REMARK  290  A    between atoms: _717  and  _720
REMARK  291  A    between atoms: _720  and  _721
REMARK  292  A    between atoms: _724  and  _726
REMARK  293  A    between atoms: _726  and  _727
REMARK  294  A    between atoms: _729  and  _731
REMARK  295  A    between atoms: _731  and  _732
REMARK  296  A    between atoms: _731  and  _734
REMARK  297  A    between atoms: _734  and  _735
REMARK  298  A    between atoms: _738  and  _740
REMARK  299  A    between atoms: _740  and  _741
REMARK  300  A    between atoms: _740  and  _743
REMARK  301  A    between atoms: _743  and  _744
REMARK  302  A    between atoms: _745  and  _747
REMARK  303  A    between atoms: _747  and  _748
REMARK  304  A    between atoms: _747  and  _750
REMARK  305  A    between atoms: _753  and  _755
REMARK  306  A    between atoms: _755  and  _756
REMARK  307  A    between atoms: _755  and  _758
REMARK  308  A    between atoms: _758  and  _759
REMARK  309  A    between atoms: _759  and  _760
REMARK  310  A    between atoms: _763  and  _765
REMARK  311  A    between atoms: _765  and  _766
REMARK  312  A    between atoms: _765  and  _768
REMARK  313  A    between atoms: _768  and  _769
REMARK  314  A    between atoms: _779  and  _781
REMARK  315  A    between atoms: _781  and  _782
REMARK  316  A    between atoms: _781  and  _784
REMARK  317  A    between atoms: _784  and  _785
REMARK  318  A    between atoms: _788  and  _790
REMARK  319  A    between atoms: _790  and  _791
REMARK  320  A    between atoms: _790  and  _793
REMARK  321  A    between atoms: _793  and  _794
REMARK  322  A    between atoms: _799  and  _800
REMARK                            x       y       z     vdW  Elec       q    Type
REMARK                         _______ _______ _______ _____ _____    ______ ____
ROOT
ATOM      1  C   THR A   1      31.512  53.701 -17.227  0.00  0.00    +0.241 C 
ATOM      2  N   LEU A   2      32.045  52.689 -16.550  0.00  0.00    -0.298 N 
ATOM      3  H   LEU A   2      32.158  52.756 -15.518  0.00  0.00    +0.150 HD
ATOM      4  O   THR A   1      31.338  53.673 -18.449  0.00  0.00    -0.274 OA
ENDROOT
BRANCH   1   5
ATOM      5  CA  THR A   1      31.108  54.923 -16.416  0.00  0.00    +0.172 C 
BRANCH   5   6
ATOM      6  N   THR A   1      30.387  54.555 -15.203  0.00  0.00    -0.236 NA
ATOM      7  H   THR A   1      30.758  54.856 -14.279  0.00  0.00    +0.142 HD
ENDBRANCH   5   6
BRANCH   5   8
ATOM      8  CB  THR A   1      32.378  55.736 -16.093  0.00  0.00    +0.135 C 
ATOM      9  CG2 THR A   1      33.099  56.142 -17.380  0.00  0.00    +0.034 C 
BRANCH   8  10
ATOM     10  OG1 THR A   1      32.013  56.918 -15.367  0.00  0.00    -0.383 OA
ATOM     11  HG1 THR A   1      32.828  57.441 -15.159  0.00  0.00    +0.210 HD
ENDBRANCH   8  10
ENDBRANCH   5   8
ENDBRANCH   1   5
BRANCH   2  12
ATOM     12  CA  LEU A   2      32.471  51.485 -17.253  0.00  0.00    +0.137 C 
BRANCH  12  13
ATOM     13  C   LEU A   2      31.310  50.708 -17.885  0.00  0.00    +0.227 C 
ATOM     14  O   LEU A   2      31.508  50.010 -18.882  0.00  0.00    -0.286 OA
ENDBRANCH  12  13
BRANCH  12  15
ATOM     15  CB  LEU A   2      33.313  50.597 -16.322  0.00  0.00    +0.028 C 
BRANCH  15  16
ATOM     16  CG  LEU A   2      34.822  50.879 -16.442  0.00  0.00    +0.002 C 
ATOM     17  CD2 LEU A   2      35.594  50.109 -15.387  0.00  0.00    +0.000 C 
ATOM     18  CD1 LEU A   2      35.084  52.375 -16.312  0.00  0.00    +0.000 C 
ENDBRANCH  15  16
ENDBRANCH  12  15
ENDBRANCH   2  12
TORSDOF 8
REMARK  Name = ../refined-set-2016/1fzk/1fzk_pocket.pdb
REMARK  322 active torsions:
REMARK  status: ('A' for Active; 'I' for Inactive)
REMARK    1  A    between atoms: _1  and  _3
REMARK    2  A    between atoms: _3  and  _4
REMARK    3  A    between atoms: _3  and  _6
REMARK    4  A    between atoms: _6  and  _7
REMARK    5  A    between atoms: _10  and  _12
REMARK    6  A    between atoms: _12  and  _13
REMARK    7  A    between atoms: _12  and  _15
REMARK    8  A    between atoms: _15  and  _16
REMARK    9  A    between atoms: _16  and  _17
REMARK   10  A    between atoms: _17  and  _18
REMARK   11  A    between atoms: _27  and  _29
REMARK   12  A    between atoms: _29  and  _30
REMARK   13  A    between atoms: _29  and  _32
REMARK   14  A    between atoms: _32  and  _33
REMARK   15  A    between atoms: _38  and  _39
REMARK   16  A    between atoms: _41  and  _43
REMARK   17  A    between atoms: _43  and  _44
REMARK   18  A    between atoms: _43  and  _46
REMARK   19  A    between atoms: _46  and  _47
REMARK   20  A    between atoms: _53  and  _55
REMARK   21  A    between atoms: _55  and  _56
REMARK   22  A    between atoms: _55  and  _58
REMARK   23  A    between atoms: _61  and  _63
REMARK   24  A    between atoms: _63  and  _64
REMARK   25  A    between atoms: _63  and  _66
REMARK   26  A    between atoms: _66  and  _67
REMARK   27  A    between atoms: _70  and  _72
REMARK   28  A    between atoms: _72  and  _73
REMARK   29  A    between atoms: _72  and  _75
REMARK   30  A    between atoms: _75  and  _76
REMARK   31  A    between atoms: _81  and  _82
REMARK   32  A    between atoms: _84  and  _86
REMARK   33  A    between atoms: _86  and  _87
REMARK   34  A    between atoms: _86  and  _89
REMARK   35  A    between atoms: _89  and  _90
REMARK   36  A    between atoms: _90  and  _91
REMARK   37  A    between atoms: _93  and  _95
REMARK   38  A    between atoms: _95  and  _96
REMARK   39  A    between atoms: _95  and  _98
REMARK   40  A    between atoms: _98  and  _99
REMARK   41  A    between atoms: _99  and  _100
REMARK   42  A    between atoms: _103  and  _105
REMARK   43  A    between atoms: _105  and  _106
REMARK   44  A    between atoms: _105  and  _108
REMARK   45  A    between atoms: _111  and  _113
REMARK   46  A    between atoms: _113  and  _114
REMARK   47  A    between atoms: _116  and  _118
REMARK   48  A    between atoms: _118  and  _119
REMARK   49  A    between atoms: _118  and  _121
REMARK   50  A    between atoms: _124  and  _126
REMARK   51  A    between atoms: _126  and  _127
REMARK   52  A    between atoms: _126  and  _129
REMARK   53  A    between atoms: _129  and  _130
REMARK   54  A    between atoms: _136  and  _138
REMARK   55  A    between atoms: _138  and  _139
REMARK   56  A    between atoms: _138  and  _141
REMARK   57  A    between atoms: _144  and  _146
REMARK   58  A    between atoms: _146  and  _147
REMARK   59  A    between atoms: _146  and  _149
REMARK   60  A    between atoms: _149  and  _150
REMARK   61  A    between atoms: _155  and  _156
REMARK   62  A    between atoms: _158  and  _160
REMARK   63  A    between atoms: _160  and  _161
REMARK   64  A    between atoms: _160  and  _163
REMARK   65  A    between atoms: _163  and  _164
REMARK   66  A    between atoms: _164  and  _165
REMARK   67  A    between atoms: _167  and  _169
REMARK   68  A    between atoms: _169  and  _170
REMARK   69  A    between atoms: _169  and  _172
REMARK   70  A    between atoms: _172  and  _173
REMARK   71  A    between atoms: _173  and  _174
REMARK   72  A    between atoms: _177  and  _179
REMARK   73  A    between atoms: _179  and  _180
REMARK   74  A    between atoms: _179  and  _182
REMARK   75  A    between atoms: _182  and  _183
REMARK   76  A    between atoms: _183  and  _184
REMARK   77  A    between atoms: _187  and  _189
REMARK   78  A    between atoms: _189  and  _190
REMARK   79  A    between atoms: _189  and  _192
REMARK   80  A    between atoms: _192  and  _193
REMARK   81  A    between atoms: _198  and  _199
REMARK   82  A    between atoms: _201  and  _203
REMARK   83  A    between atoms: _203  and  _204
REMARK   84  A    between atoms: _203  and  _206
REMARK   85  A    between atoms: _206  and  _207
REMARK   86  A    between atoms: _207  and  _208
REMARK   87  A    between atoms: _208  and  _209
REMARK   88  A    between atoms: _218  and  _220
REMARK   89  A    between atoms: _220  and  _221
REMARK   90  A    between atoms: _220  and  _223
REMARK   91  A    between atoms: _223  and  _224
REMARK   92  A    between atoms: _224  and  _225
REMARK   93  A    between atoms: _228  and  _230
REMARK   94  A    between atoms: _230  and  _231
REMARK   95  A    between atoms: _230  and  _233
REMARK   96  A    between atoms: _233  and  _234
REMARK   97  A    between atoms: _234  and  _235
REMARK   98  A    between atoms: _240  and  _242
REMARK   99  A    between atoms: _242  and  _243
REMARK  100  A    between atoms: _242  and  _245
REMARK  101  A    between atoms: _245  and  _246
REMARK  102  A    between atoms: _246  and  _247
REMARK  103  A    between atoms: _247  and  _248
REMARK  104  A    between atoms: _248  and  _249
REMARK  105  A    between atoms: _253  and  _255
REMARK  106  A    between atoms: _255  and  _256
REMARK  107  A    between atoms: _259  and  _261
REMARK  108  A    between atoms: _261  and  _262
REMARK  109  A    between atoms: _264  and  _266
REMARK  110  A    between atoms: _266  and  _267
REMARK  111  A    between atoms: _266  and  _269
REMARK  112  A    between atoms: _269  and  _270
REMARK  113  A    between atoms: _275  and  _277
REMARK  114  A    between atoms: _277  and  _278
REMARK  115  A    between atoms: _277  and  _280
REMARK  116  A    between atoms: _280  and  _281
REMARK  117  A    between atoms: _281  and  _282
REMARK  118  A    between atoms: _285  and  _287
REMARK  119  A    between atoms: _287  and  _288
REMARK  120  A    between atoms: _287  and  _290
REMARK  121  A    between atoms: _290  and  _291
REMARK  122  A    between atoms: _291  and  _292
REMARK  123  A    between atoms: _297  and  _299
REMARK  124  A    between atoms: _299  and  _300
REMARK  125  A    between atoms: _299  and  _302
REMARK  126  A    between atoms: _302  and  _303
REMARK  127  A    between atoms: _305  and  _307
REMARK  128  A    between atoms: _307  and  _308
REMARK  129  A    between atoms: _307  and  _310
REMARK  130  A    between atoms: _310  and  _311
REMARK  131  A    between atoms: _317  and  _319
REMARK  132  A    between atoms: _319  and  _320
REMARK  133  A    between atoms: _319  and  _322
REMARK  134  A    between atoms: _325  and  _327
REMARK  135  A    between atoms: _327  and  _328
REMARK  136  A    between atoms: _327  and  _330
REMARK  137  A    between atoms: _330  and  _331
REMARK  138  A    between atoms: _334  and  _336
REMARK  139  A    between atoms: _336  and  _337
REMARK  140  A    between atoms: _336  and  _339
REMARK  141  A    between atoms: _339  and  _340
REMARK  142  A    between atoms: _343  and  _345
REMARK  143  A    between atoms: _345  and  _346
REMARK  144  A    between atoms: _345  and  _348
REMARK  145  A    between atoms: _348  and  _349
REMARK  146  A    between atoms: _352  and  _354
REMARK  147  A    between atoms: _354  and  _355
REMARK  148  A    between atoms: _354  and  _357
REMARK  149  A    between atoms: _357  and  _358
REMARK  150  A    between atoms: _361  and  _363
REMARK  151  A    between atoms: _363  and  _364
REMARK  152  A    between atoms: _363  and  _366
REMARK  153  A    between atoms: _366  and  _367
REMARK  154  A    between atoms: _372  and  _373
REMARK  155  A    between atoms: _375  and  _377
REMARK  156  A    between atoms: _377  and  _378
REMARK  157  A    between atoms: _377  and  _380
REMARK  158  A    between atoms: _380  and  _381
REMARK  159  A    between atoms: _386  and  _387
REMARK  160  A    between atoms: _389  and  _391
REMARK  161  A    between atoms: _391  and  _392
REMARK  162  A    between atoms: _391  and  _394
REMARK  163  A    between atoms: _394  and  _395
REMARK  164  A    between atoms: _398  and  _400
REMARK  165  A    between atoms: _400  and  _401
REMARK  166  A    between atoms: _400  and  _403
REMARK  167  A    between atoms: _403  and  _404
REMARK  168  A    between atoms: _404  and  _405
REMARK  169  A    between atoms: _410  and  _412
REMARK  170  A    between atoms: _412  and  _413
REMARK  171  A    between atoms: _412  and  _415
REMARK  172  A    between atoms: _418  and  _420
REMARK  173  A    between atoms: _420  and  _421
REMARK  174  A    between atoms: _420  and  _423
REMARK  175  A    between atoms: _423  and  _424
REMARK  176  A    between atoms: _427  and  _429
REMARK  177  A    between atoms: _429  and  _430
REMARK  178  A    between atoms: _429  and  _432
REMARK  179  A    between atoms: _432  and  _433
REMARK  180  A    between atoms: _435  and  _437
REMARK  181  A    between atoms: _437  and  _438
REMARK  182  A    between atoms: _440  and  _442
REMARK  183  A    between atoms: _442  and  _443
REMARK  184  A    between atoms: _442  and  _445
REMARK  185  A    between atoms: _445  and  _446
REMARK  186  A    between atoms: _446  and  _744
REMARK  187  A    between atoms: _447  and  _449
REMARK  188  A    between atoms: _449  and  _450
REMARK  189  A    between atoms: _449  and  _452
REMARK  190  A    between atoms: _452  and  _453
REMARK  191  A    between atoms: _458  and  _459
REMARK  192  A    between atoms: _461  and  _463
REMARK  193  A    between atoms: _463  and  _464
REMARK  194  A    between atoms: _463  and  _466
REMARK  195  A    between atoms: _466  and  _467
REMARK  196  A    between atoms: _467  and  _468
REMARK  197  A    between atoms: _473  and  _475
REMARK  198  A    between atoms: _475  and  _476
REMARK  199  A    between atoms: _475  and  _478
REMARK  200  A    between atoms: _478  and  _479
REMARK  201  A    between atoms: _479  and  _480
REMARK  202  A    between atoms: _485  and  _487
REMARK  203  A    between atoms: _487  and  _488
REMARK  204  A    between atoms: _487  and  _490
REMARK  205  A    between atoms: _490  and  _491
REMARK  206  A    between atoms: _496  and  _497
REMARK  207  A    between atoms: _499  and  _501
REMARK  208  A    between atoms: _501  and  _502
REMARK  209  A    between atoms: _505  and  _507
REMARK  210  A    between atoms: _507  and  _508
REMARK  211  A    between atoms: _507  and  _510
REMARK  212  A    between atoms: _510  and  _511
REMARK  213  A    between atoms: _516  and  _517
REMARK  214  A    between atoms: _519  and  _521
REMARK  215  A    between atoms: _521  and  _522
REMARK  216  A    between atoms: _521  and  _524
REMARK  217  A    between atoms: _524  and  _525
REMARK  218  A    between atoms: _530  and  _531
REMARK  219  A    between atoms: _533  and  _535
REMARK  220  A    between atoms: _535  and  _536
REMARK  221  A    between atoms: _535  and  _538
REMARK  222  A    between atoms: _538  and  _539
REMARK  223  A    between atoms: _542  and  _544
REMARK  224  A    between atoms: _544  and  _545
REMARK  225  A    between atoms: _544  and  _547
REMARK  226  A    between atoms: _547  and  _548
REMARK  227  A    between atoms: _558  and  _560
REMARK  228  A    between atoms: _560  and  _561
REMARK  229  A    between atoms: _564  and  _566
REMARK  230  A    between atoms: _566  and  _567
REMARK  231  A    between atoms: _570  and  _572
REMARK  232  A    between atoms: _572  and  _573
REMARK  233  A    between atoms: _572  and  _575
REMARK  234  A    between atoms: _575  and  _576
REMARK  235  A    between atoms: _579  and  _581
REMARK  236  A    between atoms: _581  and  _582
REMARK  237  A    between atoms: _581  and  _584
REMARK  238  A    between atoms: _584  and  _585
REMARK  239  A    between atoms: _588  and  _590
REMARK  240  A    between atoms: _590  and  _591
REMARK  241  A    between atoms: _590  and  _593
REMARK  242  A    between atoms: _593  and  _594
REMARK  243  A    between atoms: _597  and  _599
REMARK  244  A    between atoms: _599  and  _600
REMARK  245  A    between atoms: _599  and  _602
REMARK  246  A    between atoms: _602  and  _603
REMARK  247  A    between atoms: _603  and  _604
REMARK  248  A    between atoms: _604  and  _605
REMARK  249  A    between atoms: _605  and  _606
REMARK  250  A    between atoms: _610  and  _612
REMARK  251  A    between atoms: _612  and  _613
REMARK  252  A    between atoms: _612  and  _615
REMARK  253  A    between atoms: _615  and  _616
REMARK  254  A    between atoms: _621  and  _623
REMARK  255  A    between atoms: _623  and  _624
REMARK  256  A    between atoms: _623  and  _626
REMARK  257  A    between atoms: _626  and  _627
REMARK  258  A    between atoms: _627  and  _628
REMARK  259  A    between atoms: _628  and  _629
REMARK  260  A    between atoms: _629  and  _630
REMARK  261  A    between atoms: _634  and  _636
REMARK  262  A    between atoms: _636  and  _637
REMARK  263  A    between atoms: _636  and  _639
REMARK  264  A    between atoms: _639  and  _640
REMARK  265  A    between atoms: _650  and  _652
REMARK  266  A    between atoms: _652  and  _653
REMARK  267  A    between atoms: _656  and  _658
REMARK  268  A    between atoms: _658  and  _659
REMARK  269  A    between atoms: _661  and  _663
REMARK  270  A    between atoms: _663  and  _664
REMARK  271  A    between atoms: _667  and  _669
REMARK  272  A    between atoms: _669  and  _670
REMARK  273  A    between atoms: _673  and  _675
REMARK  274  A    between atoms: _675  and  _676
REMARK  275  A    between atoms: _675  and  _678
REMARK  276  A    between atoms: _678  and  _679
REMARK  277  A    between atoms: _684  and  _685
REMARK  278  A    between atoms: _687  and  _689
REMARK  279  A    between atoms: _689  and  _690
REMARK  280  A    between atoms: _689  and  _692
REMARK  281  A    between atoms: _692  and  _693
REMARK  282  A    between atoms: _698  and  _699
REMARK  283  A    between atoms: _701  and  _703
REMARK  284  A    between atoms: _703  and  _704
REMARK  285  A    between atoms: _703  and  _706
REMARK  286  A    between atoms: _706  and  _707
REMARK  287  A    between atoms: _712  and  _713
REMARK  288  A    between atoms: _715  and  _717
REMARK  289  A    between atoms: _717  and  _718
REMARK  290  A    between atoms: _717  and  _720
REMARK  291  A    between atoms: _720  and  _721
REMARK  292  A    between atoms: _724  and  _726
REMARK  293  A    between atoms: _726  and  _727
REMARK  294  A    between atoms: _729  and  _731
REMARK  295  A    between atoms: _731  and  _732
REMARK  296  A    between atoms: _731  and  _734
REMARK  297  A    between atoms: _734  and  _735
REMARK  298  A    between atoms: _738  and  _740
REMARK  299  A    between atoms: _740  and  _741
REMARK  300  A    between atoms: _740  and  _743
REMARK  301  A    between atoms: _743  and  _744
REMARK  302  A    between atoms: _745  and  _747
REMARK  303  A    between atoms: _747  and  _748
REMARK  304  A    between atoms: _747  and  _750
REMARK  305  A    between atoms: _753  and  _755
REMARK  306  A    between atoms: _755  and  _756
REMARK  307  A    between atoms: _755  and  _758
REMARK  308  A    between atoms: _758  and  _759
REMARK  309  A    between atoms: _759  and  _760
REMARK  310  A    between atoms: _763  and  _765
REMARK  311  A    between atoms: _765  and  _766
REMARK  312  A    between atoms: _765  and  _768
REMARK  313  A    between atoms: _768  and  _769
REMARK  314  A    between atoms: _779  and  _781
REMARK  315  A    between atoms: _781  and  _782
REMARK  316  A    between atoms: _781  and  _784
REMARK  317  A    between atoms: _784  and  _785
REMARK  318  A    between atoms: _788  and  _790
REMARK  319  A    between atoms: _790  and  _791
REMARK  320  A    between atoms: _790  and  _793
REMARK  321  A    between atoms: _793  and  _794
REMARK  322  A    between atoms: _799  and  _800
REMARK                            x       y       z     vdW  Elec       q    Type
REMARK                         _______ _______ _______ _____ _____    ______ ____
ROOT
ATOM      1  C   TYR A   1      32.296  50.618 -22.674  0.00  0.00    +0.239 C 
ATOM      2  N   TYR A   2      31.825  49.674 -21.863  0.00  0.00    -0.298 N 
ATOM      3  H   TYR A   2      31.553  49.932 -20.893  0.00  0.00    +0.150 HD
ATOM      4  O   TYR A   1      32.610  50.408 -23.846  0.00  0.00    -0.274 OA
ENDROOT
BRANCH   1   5
ATOM      5  CA  TYR A   1      32.447  52.010 -22.071  0.00  0.00    +0.149 C 
BRANCH   5   6
ATOM      6  N   TYR A   1      31.322  52.356 -21.202  0.00  0.00    -0.238 NA
ATOM      7  H   TYR A   1      31.500  52.598 -20.206  0.00  0.00    +0.142 HD
ENDBRANCH   5   6
BRANCH   5   8
ATOM      8  CB  TYR A   1      33.787  52.032 -21.314  0.00  0.00    +0.053 C 
BRANCH   8   9
ATOM      9  CG  TYR A   1      34.322  53.387 -20.883  0.00  0.00    -0.020 A 
ATOM     10  CD2 TYR A   1      35.298  53.471 -19.889  0.00  0.00    -0.001 A 
ATOM     11  CE2 TYR A   1      35.829  54.695 -19.490  0.00  0.00    +0.036 A 
ATOM     12  CZ  TYR A   1      35.387  55.864 -20.083  0.00  0.00    +0.134 A 
ATOM     13  CE1 TYR A   1      34.418  55.819 -21.080  0.00  0.00    +0.036 A 
ATOM     14  CD1 TYR A   1      33.888  54.571 -21.477  0.00  0.00    -0.001 A 
BRANCH  12  15
ATOM     15  OH  TYR A   1      35.911  57.065 -19.656  0.00  0.00    -0.506 OA
ATOM     16  HH  TYR A   1      35.717  57.184 -18.692  0.00  0.00    +0.292 HD
ENDBRANCH  12  15
ENDBRANCH   8   9
ENDBRANCH   5   8
ENDBRANCH   1   5
BRANCH   2  17
ATOM     17  CA  TYR A   2      31.678  48.285 -22.296  0.00  0.00    +0.141 C 
BRANCH  17  18
ATOM     18  C   TYR A   2      30.273  47.887 -22.767  0.00  0.00    +0.227 C 
ATOM     19  O   TYR A   2      30.038  46.726 -23.121  0.00  0.00    -0.286 OA
ENDBRANCH  17  18
BRANCH  17  20
ATOM     20  CB  TYR A   2      32.140  47.360 -21.158  0.00  0.00    +0.054 C 
BRANCH  20  21
ATOM     21  CG  TYR A   2      33.629  47.436 -20.855  0.00  0.00    -0.020 A 
ATOM     22  CD2 TYR A   2      34.106  48.097 -19.717  0.00  0.00    -0.001 A 
ATOM     23  CE2 TYR A   2      35.478  48.152 -19.428  0.00  0.00    +0.036 A 
ATOM     24  CZ  TYR A   2      36.383  47.542 -20.287  0.00  0.00    +0.134 A 
ATOM     25  CE1 TYR A   2      35.932  46.885 -21.423  0.00  0.00    +0.036 A 
ATOM     26  CD1 TYR A   2      34.564  46.835 -21.701  0.00  0.00    -0.001 A 
BRANCH  24  27
ATOM     27  OH  TYR A   2      37.736  47.573 -20.018  0.00  0.00    -0.506 OA
ATOM     28  HH  TYR A   2      38.224  47.092 -20.732  0.00  0.00    +0.292 HD
ENDBRANCH  24  27
ENDBRANCH  20  21
ENDBRANCH  17  20
ENDBRANCH   2  17
TORSDOF 10
REMARK  Name = ../refined-set-2016/1fzk/1fzk_pocket.pdb
REMARK  322 active torsions:
REMARK  status: ('A' for Active; 'I' for Inactive)
REMARK    1  A    between atoms: _1  and  _3
REMARK    2  A    between atoms: _3  and  _4
REMARK    3  A    between atoms: _3  and  _6
REMARK    4  A    between atoms: _6  and  _7
REMARK    5  A    between atoms: _10  and  _12
REMARK    6  A    between atoms: _12  and  _13
REMARK    7  A    between atoms: _12  and  _15
REMARK    8  A    between atoms: _15  and  _16
REMARK    9  A    between atoms: _16  and  _17
REMARK   10  A    between atoms: _17  and  _18
REMARK   11  A    between atoms: _27  and  _29
REMARK   12  A    between atoms: _29  and  _30
REMARK   13  A    between atoms: _29  and  _32
REMARK   14  A    between atoms: _32  and  _33
REMARK   15  A    between atoms: _38  and  _39
REMARK   16  A    between atoms: _41  and  _43
REMARK   17  A    between atoms: _43  and  _44
REMARK   18  A    between atoms: _43  and  _46
REMARK   19  A    between atoms: _46  and  _47
REMARK   20  A    between atoms: _53  and  _55
REMARK   21  A    between atoms: _55  and  _56
REMARK   22  A    between atoms: _55  and  _58
REMARK   23  A    between atoms: _61  and  _63
REMARK   24  A    between atoms: _63  and  _64
REMARK   25  A    between atoms: _63  and  _66
REMARK   26  A    between atoms: _66  and  _67
REMARK   27  A    between atoms: _70  and  _72
REMARK   28  A    between atoms: _72  and  _73
REMARK   29  A    between atoms: _72  and  _75
REMARK   30  A    between atoms: _75  and  _76
REMARK   31  A    between atoms: _81  and  _82
REMARK   32  A    between atoms: _84  and  _86
REMARK   33  A    between atoms: _86  and  _87
REMARK   34  A    between atoms: _86  and  _89
REMARK   35  A    between atoms: _89  and  _90
REMARK   36  A    between atoms: _90  and  _91
REMARK   37  A    between atoms: _93  and  _95
REMARK   38  A    between atoms: _95  and  _96
REMARK   39  A    between atoms: _95  and  _98
REMARK   40  A    between atoms: _98  and  _99
REMARK   41  A    between atoms: _99  and  _100
REMARK   42  A    between atoms: _103  and  _105
REMARK   43  A    between atoms: _105  and  _106
REMARK   44  A    between atoms: _105  and  _108
REMARK   45  A    between atoms: _111  and  _113
REMARK   46  A    between atoms: _113  and  _114
REMARK   47  A    between atoms: _116  and  _118
REMARK   48  A    between atoms: _118  and  _119
REMARK   49  A    between atoms: _118  and  _121
REMARK   50  A    between atoms: _124  and  _126
REMARK   51  A    between atoms: _126  and  _127
REMARK   52  A    between atoms: _126  and  _129
REMARK   53  A    between atoms: _129  and  _130
REMARK   54  A    between atoms: _136  and  _138
REMARK   55  A    between atoms: _138  and  _139
REMARK   56  A    between atoms: _138  and  _141
REMARK   57  A    between atoms: _144  and  _146
REMARK   58  A    between atoms: _146  and  _147
REMARK   59  A    between atoms: _146  and  _149
REMARK   60  A    between atoms: _149  and  _150
REMARK   61  A    between atoms: _155  and  _156
REMARK   62  A    between atoms: _158  and  _160
REMARK   63  A    between atoms: _160  and  _161
REMARK   64  A    between atoms: _160  and  _163
REMARK   65  A    between atoms: _163  and  _164
REMARK   66  A    between atoms: _164  and  _165
REMARK   67  A    between atoms: _167  and  _169
REMARK   68  A    between atoms: _169  and  _170
REMARK   69  A    between atoms: _169  and  _172
REMARK   70  A    between atoms: _172  and  _173
REMARK   71  A    between atoms: _173  and  _174
REMARK   72  A    between atoms: _177  and  _179
REMARK   73  A    between atoms: _179  and  _180
REMARK   74  A    between atoms: _179  and  _182
REMARK   75  A    between atoms: _182  and  _183
REMARK   76  A    between atoms: _183  and  _184
REMARK   77  A    between atoms: _187  and  _189
REMARK   78  A    between atoms: _189  and  _190
REMARK   79  A    between atoms: _189  and  _192
REMARK   80  A    between atoms: _192  and  _193
REMARK   81  A    between atoms: _198  and  _199
REMARK   82  A    between atoms: _201  and  _203
REMARK   83  A    between atoms: _203  and  _204
REMARK   84  A    between atoms: _203  and  _206
REMARK   85  A    between atoms: _206  and  _207
REMARK   86  A    between atoms: _207  and  _208
REMARK   87  A    between atoms: _208  and  _209
REMARK   88  A    between atoms: _218  and  _220
REMARK   89  A    between atoms: _220  and  _221
REMARK   90  A    between atoms: _220  and  _223
REMARK   91  A    between atoms: _223  and  _224
REMARK   92  A    between atoms: _224  and  _225
REMARK   93  A    between atoms: _228  and  _230
REMARK   94  A    between atoms: _230  and  _231
REMARK   95  A    between atoms: _230  and  _233
REMARK   96  A    between atoms: _233  and  _234
REMARK   97  A    between atoms: _234  and  _235
REMARK   98  A    between atoms: _240  and  _242
REMARK   99  A    between atoms: _242  and  _243
REMARK  100  A    between atoms: _242  and  _245
REMARK  101  A    between atoms: _245  and  _246
REMARK  102  A    between atoms: _246  and  _247
REMARK  103  A    between atoms: _247  and  _248
REMARK  104  A    between atoms: _248  and  _249
REMARK  105  A    between atoms: _253  and  _255
REMARK  106  A    between atoms: _255  and  _256
REMARK  107  A    between atoms: _259  and  _261
REMARK  108  A    between atoms: _261  and  _262
REMARK  109  A    between atoms: _264  and  _266
REMARK  110  A    between atoms: _266  and  _267
REMARK  111  A    between atoms: _266  and  _269
REMARK  112  A    between atoms: _269  and  _270
REMARK  113  A    between atoms: _275  and  _277
REMARK  114  A    between atoms: _277  and  _278
REMARK  115  A    between atoms: _277  and  _280
REMARK  116  A    between atoms: _280  and  _281
REMARK  117  A    between atoms: _281  and  _282
REMARK  118  A    between atoms: _285  and  _287
REMARK  119  A    between atoms: _287  and  _288
REMARK  120  A    between atoms: _287  and  _290
REMARK  121  A    between atoms: _290  and  _291
REMARK  122  A    between atoms: _291  and  _292
REMARK  123  A    between atoms: _297  and  _299
REMARK  124  A    between atoms: _299  and  _300
REMARK  125  A    between atoms: _299  and  _302
REMARK  126  A    between atoms: _302  and  _303
REMARK  127  A    between atoms: _305  and  _307
REMARK  128  A    between atoms: _307  and  _308
REMARK  129  A    between atoms: _307  and  _310
REMARK  130  A    between atoms: _310  and  _311
REMARK  131  A    between atoms: _317  and  _319
REMARK  132  A    between atoms: _319  and  _320
REMARK  133  A    between atoms: _319  and  _322
REMARK  134  A    between atoms: _325  and  _327
REMARK  135  A    between atoms: _327  and  _328
REMARK  136  A    between atoms: _327  and  _330
REMARK  137  A    between atoms: _330  and  _331
REMARK  138  A    between atoms: _334  and  _336
REMARK  139  A    between atoms: _336  and  _337
REMARK  140  A    between atoms: _336  and  _339
REMARK  141  A    between atoms: _339  and  _340
REMARK  142  A    between atoms: _343  and  _345
REMARK  143  A    between atoms: _345  and  _346
REMARK  144  A    between atoms: _345  and  _348
REMARK  145  A    between atoms: _348  and  _349
REMARK  146  A    between atoms: _352  and  _354
REMARK  147  A    between atoms: _354  and  _355
REMARK  148  A    between atoms: _354  and  _357
REMARK  149  A    between atoms: _357  and  _358
REMARK  150  A    between atoms: _361  and  _363
REMARK  151  A    between atoms: _363  and  _364
REMARK  152  A    between atoms: _363  and  _366
REMARK  153  A    between atoms: _366  and  _367
REMARK  154  A    between atoms: _372  and  _373
REMARK  155  A    between atoms: _375  and  _377
REMARK  156  A    between atoms: _377  and  _378
REMARK  157  A    between atoms: _377  and  _380
REMARK  158  A    between atoms: _380  and  _381
REMARK  159  A    between atoms: _386  and  _387
REMARK  160  A    between atoms: _389  and  _391
REMARK  161  A    between atoms: _391  and  _392
REMARK  162  A    between atoms: _391  and  _394
REMARK  163  A    between atoms: _394  and  _395
REMARK  164  A    between atoms: _398  and  _400
REMARK  165  A    between atoms: _400  and  _401
REMARK  166  A    between atoms: _400  and  _403
REMARK  167  A    between atoms: _403  and  _404
REMARK  168  A    between atoms: _404  and  _405
REMARK  169  A    between atoms: _410  and  _412
REMARK  170  A    between atoms: _412  and  _413
REMARK  171  A    between atoms: _412  and  _415
REMARK  172  A    between atoms: _418  and  _420
REMARK  173  A    between atoms: _420  and  _421
REMARK  174  A    between atoms: _420  and  _423
REMARK  175  A    between atoms: _423  and  _424
REMARK  176  A    between atoms: _427  and  _429
REMARK  177  A    between atoms: _429  and  _430
REMARK  178  A    between atoms: _429  and  _432
REMARK  179  A    between atoms: _432  and  _433
REMARK  180  A    between atoms: _435  and  _437
REMARK  181  A    between atoms: _437  and  _438
REMARK  182  A    between atoms: _440  and  _442
REMARK  183  A    between atoms: _442  and  _443
REMARK  184  A    between atoms: _442  and  _445
REMARK  185  A    between atoms: _445  and  _446
REMARK  186  A    between atoms: _446  and  _744
REMARK  187  A    between atoms: _447  and  _449
REMARK  188  A    between atoms: _449  and  _450
REMARK  189  A    between atoms: _449  and  _452
REMARK  190  A    between atoms: _452  and  _453
REMARK  191  A    between atoms: _458  and  _459
REMARK  192  A    between atoms: _461  and  _463
REMARK  193  A    between atoms: _463  and  _464
REMARK  194  A    between atoms: _463  and  _466
REMARK  195  A    between atoms: _466  and  _467
REMARK  196  A    between atoms: _467  and  _468
REMARK  197  A    between atoms: _473  and  _475
REMARK  198  A    between atoms: _475  and  _476
REMARK  199  A    between atoms: _475  and  _478
REMARK  200  A    between atoms: _478  and  _479
REMARK  201  A    between atoms: _479  and  _480
REMARK  202  A    between atoms: _485  and  _487
REMARK  203  A    between atoms: _487  and  _488
REMARK  204  A    between atoms: _487  and  _490
REMARK  205  A    between atoms: _490  and  _491
REMARK  206  A    between atoms: _496  and  _497
REMARK  207  A    between atoms: _499  and  _501
REMARK  208  A    between atoms: _501  and  _502
REMARK  209  A    between atoms: _505  and  _507
REMARK  210  A    between atoms: _507  and  _508
REMARK  211  A    between atoms: _507  and  _510
REMARK  212  A    between atoms: _510  and  _511
REMARK  213  A    between atoms: _516  and  _517
REMARK  214  A    between atoms: _519  and  _521
REMARK  215  A    between atoms: _521  and  _522
REMARK  216  A    between atoms: _521  and  _524
REMARK  217  A    between atoms: _524  and  _525
REMARK  218  A    between atoms: _530  and  _531
REMARK  219  A    between atoms: _533  and  _535
REMARK  220  A    between atoms: _535  and  _536
REMARK  221  A    between atoms: _535  and  _538
REMARK  222  A    between atoms: _538  and  _539
REMARK  223  A    between atoms: _542  and  _544
REMARK  224  A    between atoms: _544  and  _545
REMARK  225  A    between atoms: _544  and  _547
REMARK  226  A    between atoms: _547  and  _548
REMARK  227  A    between atoms: _558  and  _560
REMARK  228  A    between atoms: _560  and  _561
REMARK  229  A    between atoms: _564  and  _566
REMARK  230  A    between atoms: _566  and  _567
REMARK  231  A    between atoms: _570  and  _572
REMARK  232  A    between atoms: _572  and  _573
REMARK  233  A    between atoms: _572  and  _575
REMARK  234  A    between atoms: _575  and  _576
REMARK  235  A    between atoms: _579  and  _581
REMARK  236  A    between atoms: _581  and  _582
REMARK  237  A    between atoms: _581  and  _584
REMARK  238  A    between atoms: _584  and  _585
REMARK  239  A    between atoms: _588  and  _590
REMARK  240  A    between atoms: _590  and  _591
REMARK  241  A    between atoms: _590  and  _593
REMARK  242  A    between atoms: _593  and  _594
REMARK  243  A    between atoms: _597  and  _599
REMARK  244  A    between atoms: _599  and  _600
REMARK  245  A    between atoms: _599  and  _602
REMARK  246  A    between atoms: _602  and  _603
REMARK  247  A    between atoms: _603  and  _604
REMARK  248  A    between atoms: _604  and  _605
REMARK  249  A    between atoms: _605  and  _606
REMARK  250  A    between atoms: _610  and  _612
REMARK  251  A    between atoms: _612  and  _613
REMARK  252  A    between atoms: _612  and  _615
REMARK  253  A    between atoms: _615  and  _616
REMARK  254  A    between atoms: _621  and  _623
REMARK  255  A    between atoms: _623  and  _624
REMARK  256  A    between atoms: _623  and  _626
REMARK  257  A    between atoms: _626  and  _627
REMARK  258  A    between atoms: _627  and  _628
REMARK  259  A    between atoms: _628  and  _629
REMARK  260  A    between atoms: _629  and  _630
REMARK  261  A    between atoms: _634  and  _636
REMARK  262  A    between atoms: _636  and  _637
REMARK  263  A    between atoms: _636  and  _639
REMARK  264  A    between atoms: _639  and  _640
REMARK  265  A    between atoms: _650  and  _652
REMARK  266  A    between atoms: _652  and  _653
REMARK  267  A    between atoms: _656  and  _658
REMARK  268  A    between atoms: _658  and  _659
REMARK  269  A    between atoms: _661  and  _663
REMARK  270  A    between atoms: _663  and  _664
REMARK  271  A    between atoms: _667  and  _669
REMARK  272  A    between atoms: _669  and  _670
REMARK  273  A    between atoms: _673  and  _675
REMARK  274  A    between atoms: _675  and  _676
REMARK  275  A    between atoms: _675  and  _678
REMARK  276  A    between atoms: _678  and  _679
REMARK  277  A    between atoms: _684  and  _685
REMARK  278  A    between atoms: _687  and  _689
REMARK  279  A    between atoms: _689  and  _690
REMARK  280  A    between atoms: _689  and  _692
REMARK  281  A    between atoms: _692  and  _693
REMARK  282  A    between atoms: _698  and  _699
REMARK  283  A    between atoms: _701  and  _703
REMARK  284  A    between atoms: _703  and  _704
REMARK  285  A    between atoms: _703  and  _706
REMARK  286  A    between atoms: _706  and  _707
REMARK  287  A    between atoms: _712  and  _713
REMARK  288  A    between atoms: _715  and  _717
REMARK  289  A    between atoms: _717  and  _718
REMARK  290  A    between atoms: _717  and  _720
REMARK  291  A    between atoms: _720  and  _721
REMARK  292  A    between atoms: _724  and  _726
REMARK  293  A    between atoms: _726  and  _727
REMARK  294  A    between atoms: _729  and  _731
REMARK  295  A    between atoms: _731  and  _732
REMARK  296  A    between atoms: _731  and  _734
REMARK  297  A    between atoms: _734  and  _735
REMARK  298  A    between atoms: _738  and  _740
REMARK  299  A    between atoms: _740  and  _741
REMARK  300  A    between atoms: _740  and  _743
REMARK  301  A    between atoms: _743  and  _744
REMARK  302  A    between atoms: _745  and  _747
REMARK  303  A    between atoms: _747  and  _748
REMARK  304  A    between atoms: _747  and  _750
REMARK  305  A    between atoms: _753  and  _755
REMARK  306  A    between atoms: _755  and  _756
REMARK  307  A    between atoms: _755  and  _758
REMARK  308  A    between atoms: _758  and  _759
REMARK  309  A    between atoms: _759  and  _760
REMARK  310  A    between atoms: _763  and  _765
REMARK  311  A    between atoms: _765  and  _766
REMARK  312  A    between atoms: _765  and  _768
REMARK  313  A    between atoms: _768  and  _769
REMARK  314  A    between atoms: _779  and  _781
REMARK  315  A    between atoms: _781  and  _782
REMARK  316  A    between atoms: _781  and  _784
REMARK  317  A    between atoms: _784  and  _785
REMARK  318  A    between atoms: _788  and  _790
REMARK  319  A    between atoms: _790  and  _791
REMARK  320  A    between atoms: _790  and  _793
REMARK  321  A    between atoms: _793  and  _794
REMARK  322  A    between atoms: _799  and  _800
REMARK                            x       y       z     vdW  Elec       q    Type
REMARK                         _______ _______ _______ _____ _____    ______ ____
ROOT
ATOM      1  CA  CYS A   3      54.218  57.872   0.484  0.00  0.00    +0.160 C 
ENDROOT
BRANCH   1   2
ATOM      2  C   CYS A   3      55.511  57.464   1.182  0.00  0.00    +0.242 C 
ATOM      3  O   CYS A   3      55.486  56.696   2.152  0.00  0.00    -0.273 OA
ATOM      4  N   VAL A   4      56.637  57.982   0.704  0.00  0.00    -0.297 N 
ATOM      5  H   VAL A   4      56.592  58.638  -0.102  0.00  0.00    +0.150 HD
BRANCH   4   6
ATOM      6  CA  VAL A   4      57.935  57.653   1.282  0.00  0.00    +0.149 C 
BRANCH   6   7
ATOM      7  C   VAL A   4      58.091  58.187   2.711  0.00  0.00    +0.241 C 
ATOM      8  O   VAL A   4      58.562  57.483   3.609  0.00  0.00    -0.273 OA
ATOM      9  N   GLU A   5      57.677  59.429   2.928  0.00  0.00    -0.297 N 
ATOM     10  H   GLU A   5      57.265  59.979   2.147  0.00  0.00    +0.150 HD
BRANCH   9  11
ATOM     11  CA  GLU A   5      57.794  60.029   4.249  0.00  0.00    +0.149 C 
BRANCH  11  12
ATOM     12  C   GLU A   5      56.974  59.321   5.326  0.00  0.00    +0.241 C 
ATOM     13  O   GLU A   5      57.444  59.150   6.453  0.00  0.00    -0.273 OA
ATOM     14  N   TRP A   6      55.759  58.898   4.994  0.00  0.00    -0.297 N 
ATOM     15  H   TRP A   6      55.388  59.055   4.035  0.00  0.00    +0.150 HD
BRANCH  14  16
ATOM     16  CA  TRP A   6      54.959  58.214   5.990  0.00  0.00    +0.153 C 
BRANCH  16  17
ATOM     17  C   TRP A   6      55.454  56.787   6.187  0.00  0.00    +0.241 C 
ATOM     18  O   TRP A   6      55.417  56.280   7.303  0.00  0.00    -0.273 OA
ATOM     19  N   LEU A   7      55.928  56.140   5.122  0.00  0.00    -0.298 N 
ATOM     20  H   LEU A   7      55.920  56.594   4.186  0.00  0.00    +0.150 HD
BRANCH  19  21
ATOM     21  CA  LEU A   7      56.461  54.782   5.280  0.00  0.00    +0.137 C 
BRANCH  21  22
ATOM     22  C   LEU A   7      57.637  54.828   6.270  0.00  0.00    +0.227 C 
ATOM     23  O   LEU A   7      57.758  53.971   7.146  0.00  0.00    -0.286 OA
ENDBRANCH  21  22
BRANCH  21  24
ATOM     24  CB  LEU A   7      56.914  54.211   3.928  0.00  0.00    +0.028 C 
BRANCH  24  25
ATOM     25  CG  LEU A   7      57.660  52.870   3.911  0.00  0.00    +0.002 C 
ATOM     26  CD2 LEU A   7      56.894  51.794   4.680  0.00  0.00    +0.000 C 
ATOM     27  CD1 LEU A   7      57.857  52.449   2.463  0.00  0.00    +0.000 C 
ENDBRANCH  24  25
ENDBRANCH  21  24
ENDBRANCH  19  21
ENDBRANCH  16  17
BRANCH  16  28
ATOM     28  CB  TRP A   6      53.471  58.254   5.629  0.00  0.00    +0.057 C 
BRANCH  28  29
ATOM     29  CG  TRP A   6      52.839  59.590   5.984  0.00  0.00    -0.002 A 
ATOM     30  CD2 TRP A   6      52.238  59.943   7.235  0.00  0.00    +0.013 A 
ATOM     31  CE3 TRP A   6      52.016  59.253   8.435  0.00  0.00    +0.001 A 
ATOM     32  CZ3 TRP A   6      51.386  59.920   9.486  0.00  0.00    +0.000 A 
ATOM     33  CH2 TRP A   6      50.977  61.263   9.350  0.00  0.00    +0.001 A 
ATOM     34  CZ2 TRP A   6      51.182  61.961   8.186  0.00  0.00    +0.017 A 
ATOM     35  CE2 TRP A   6      51.815  61.292   7.135  0.00  0.00    +0.056 A 
ATOM     36  NE1 TRP A   6      52.148  61.734   5.878  0.00  0.00    -0.352 N 
ATOM     37  HE1 TRP A   6      51.967  62.687   5.503  0.00  0.00    +0.166 HD
ATOM     38  CD1 TRP A   6      52.763  60.704   5.194  0.00  0.00    +0.068 A 
ENDBRANCH  28  29
ENDBRANCH  16  28
ENDBRANCH  14  16
ENDBRANCH  11  12
BRANCH  11  39
ATOM     39  CB  GLU A   5      57.424  61.514   4.169  0.00  0.00    +0.041 C 
BRANCH  39  40
ATOM     40  CG  GLU A   5      58.539  62.354   3.561  0.00  0.00    +0.116 C 
BRANCH  40  41
ATOM     41  CD  GLU A   5      58.034  63.611   2.884  0.00  0.00    +0.365 C 
ATOM     42  OE2 GLU A   5      56.930  64.079   3.238  0.00  0.00    -0.246 OA
ATOM     43  OE1 GLU A   5      58.753  64.133   2.002  0.00  0.00    -0.246 OA
ENDBRANCH  40  41
ENDBRANCH  39  40
ENDBRANCH  11  39
ENDBRANCH   9  11
ENDBRANCH   6   7
BRANCH   6  44
ATOM     44  CB  VAL A   4      59.076  58.194   0.371  0.00  0.00    +0.027 C 
ATOM     45  CG2 VAL A   4      60.403  58.175   1.106  0.00  0.00    +0.002 C 
ATOM     46  CG1 VAL A   4      59.175  57.333  -0.891  0.00  0.00    +0.002 C 
ENDBRANCH   6  44
ENDBRANCH   4   6
ENDBRANCH   1   2
BRANCH   1  47
ATOM     47  N   CYS A   3      54.085  59.317   0.322  0.00  0.00    -0.296 N 
ATOM     48  C   THR A   2      54.119  60.136   1.368  0.00  0.00    +0.243 C 
ATOM     49  O   THR A   2      54.289  59.742   2.529  0.00  0.00    -0.273 OA
ATOM     50  H   CYS A   3      53.961  59.713  -0.631  0.00  0.00    +0.150 HD
BRANCH  48  51
ATOM     51  CA  THR A   2      53.914  61.621   1.067  0.00  0.00    +0.176 C 
BRANCH  51  52
ATOM     52  N   THR A   2      54.801  62.207   0.076  0.00  0.00    -0.295 N 
ATOM     53  C   GLY A   1      56.112  62.023   0.034  0.00  0.00    +0.240 C 
ATOM     54  O   GLY A   1      56.735  61.301   0.814  0.00  0.00    -0.274 OA
ATOM     55  H   THR A   2      54.376  62.815  -0.653  0.00  0.00    +0.150 HD
BRANCH  53  56
ATOM     56  CA  GLY A   1      56.809  62.765  -1.082  0.00  0.00    +0.169 C 
BRANCH  56  57
ATOM     57  N   GLY A   1      56.890  61.989  -2.299  0.00  0.00    -0.236 NA
ATOM     58  H   GLY A   1      56.033  61.790  -2.853  0.00  0.00    +0.142 HD
ENDBRANCH  56  57
ENDBRANCH  53  56
ENDBRANCH  51  52
BRANCH  51  59
ATOM     59  CB  THR A   2      52.453  61.818   0.626  0.00  0.00    +0.137 C 
ATOM     60  CG2 THR A   2      51.521  61.368   1.697  0.00  0.00    +0.034 C 
BRANCH  59  61
ATOM     61  OG1 THR A   2      52.218  63.206   0.356  0.00  0.00    -0.382 OA
ATOM     62  HG1 THR A   2      52.825  63.508  -0.366  0.00  0.00    +0.210 HD
ENDBRANCH  59  61
ENDBRANCH  51  59
ENDBRANCH  48  51
ENDBRANCH   1  47
BRANCH   1  63
ATOM     63  CB  CYS A   3      54.107  57.176  -0.881  0.00  0.00    +0.098 C 
BRANCH  63  64
ATOM     64  SG  CYS A   3      53.755  55.385  -0.789  0.00  0.00    -0.080 S 
BRANCH  64  65
ATOM     65  SG  LEU A   7      55.607  54.532  -0.679  0.00  0.00    -0.080 S 
BRANCH  65  66
ATOM     66  CB  LEU A   7      56.029  54.186  -2.422  0.00  0.00    +0.096 C 
BRANCH  66  67
ATOM     67  CA  LEU A   7      55.872  52.727  -2.903  0.00  0.00    +0.149 C 
BRANCH  67  69
ATOM     68  C   TRP A   6      53.653  52.117  -3.731  0.00  0.00    +0.243 C 
ATOM     69  N   LEU A   7      54.512  52.243  -2.724  0.00  0.00    -0.297 N 
ATOM     70  H   LEU A   7      54.198  51.984  -1.767  0.00  0.00    +0.150 HD
ATOM     71  O   TRP A   6      53.904  52.447  -4.894  0.00  0.00    -0.273 OA
BRANCH  68  72
ATOM     72  CA  TRP A   6      52.305  51.549  -3.354  0.00  0.00    +0.176 C 
BRANCH  72  75
ATOM     73  C   GLU A   5      50.031  51.300  -4.033  0.00  0.00    +0.243 C 
ATOM     74  O   GLU A   5      49.763  50.790  -2.947  0.00  0.00    -0.273 OA
ATOM     75  N   TRP A   6      51.258  51.704  -4.342  0.00  0.00    -0.295 N 
ATOM     76  H   TRP A   6      51.462  52.122  -5.272  0.00  0.00    +0.150 HD
BRANCH  73  77
ATOM     77  CA  GLU A   5      48.940  51.502  -5.080  0.00  0.00    +0.178 C 
BRANCH  77  79
ATOM     78  C   VAL A   4      47.771  49.629  -6.133  0.00  0.00    +0.241 C 
ATOM     79  N   GLU A   5      48.053  50.344  -5.046  0.00  0.00    -0.295 N 
ATOM     80  H   GLU A   5      47.625  50.067  -4.139  0.00  0.00    +0.150 HD
ATOM     81  O   VAL A   4      48.205  49.909  -7.259  0.00  0.00    -0.273 OA
BRANCH  78  82
ATOM     82  CA  VAL A   4      46.830  48.443  -5.925  0.00  0.00    +0.149 C 
BRANCH  82  85
ATOM     83  C   CYS A   3      44.459  48.651  -6.405  0.00  0.00    +0.241 C 
ATOM     84  O   CYS A   3      44.155  48.365  -5.243  0.00  0.00    -0.273 OA
ATOM     85  N   VAL A   4      45.713  48.657  -6.839  0.00  0.00    -0.297 N 
ATOM     86  H   VAL A   4      45.903  48.817  -7.849  0.00  0.00    +0.150 HD
BRANCH  83  87
ATOM     87  CA  CYS A   3      43.388  49.000  -7.437  0.00  0.00    +0.149 C 
BRANCH  87  89
ATOM     88  C   THR A   2      41.550  47.661  -8.313  0.00  0.00    +0.241 C 
ATOM     89  N   CYS A   3      42.211  48.155  -7.269  0.00  0.00    -0.297 N 
ATOM     90  H   CYS A   3      41.880  47.933  -6.308  0.00  0.00    +0.150 HD
ATOM     91  O   THR A   2      41.868  47.887  -9.484  0.00  0.00    -0.273 OA
BRANCH  88  92
ATOM     92  CA  THR A   2      40.366  46.764  -8.002  0.00  0.00    +0.149 C 
BRANCH  92  95
ATOM     93  C   GLY A   1      38.042  47.246  -8.596  0.00  0.00    +0.238 C 
ATOM     94  O   GLY A   1      37.677  47.248  -7.415  0.00  0.00    -0.274 OA
ATOM     95  N   THR A   2      39.294  47.005  -8.967  0.00  0.00    -0.297 N 
ATOM     96  H   THR A   2      39.521  46.987  -9.982  0.00  0.00    +0.150 HD
BRANCH  93  97
ATOM     97  CA  GLY A   1      37.033  47.495  -9.720  0.00  0.00    +0.145 C 
BRANCH  97  98
ATOM     98  N   GLY A   1      35.869  46.687  -9.370  0.00  0.00    -0.238 NA
ATOM     99  H   GLY A   1      35.353  46.897  -8.491  0.00  0.00    +0.142 HD
ENDBRANCH  97  98
BRANCH  97 100
ATOM    100  CB  GLY A   1      36.722  49.014  -9.774  0.00  0.00    +0.025 C 
ATOM    101  CG2 GLY A   1      38.025  49.810  -9.881  0.00  0.00    +0.002 C 
BRANCH 100 102
ATOM    102  CG1 GLY A   1      35.815  49.317 -10.967  0.00  0.00    +0.002 C 
ATOM    103  CD1 GLY A   1      35.463  50.805 -11.112  0.00  0.00    +0.000 C 
ENDBRANCH 100 102
ENDBRANCH  97 100
ENDBRANCH  93  97
ENDBRANCH  92  95
BRANCH  92 104
ATOM    104  CB  THR A   2      40.843  45.309  -8.072  0.00  0.00    +0.039 C 
BRANCH 104 105
ATOM    105  CG  THR A   2      39.901  44.292  -7.448  0.00  0.00    +0.087 C 
BRANCH 105 106
ATOM    106  CD  THR A   2      40.204  42.885  -7.926  0.00  0.00    +0.219 C 
ATOM    107  NE2 THR A   2      41.083  42.190  -7.206  0.00  0.00    -0.329 N 
ATOM    108 HE21 THR A   2      41.507  42.611  -6.355  0.00  0.00    +0.145 HD
ATOM    109 HE22 THR A   2      41.346  41.226  -7.495  0.00  0.00    +0.145 HD
ATOM    110  OE1 THR A   2      39.670  42.433  -8.946  0.00  0.00    -0.275 OA
ENDBRANCH 105 106
ENDBRANCH 104 105
ENDBRANCH  92 104
ENDBRANCH  88  92
ENDBRANCH  87  89
BRANCH  87 111
ATOM    111  CB  CYS A   3      43.070  50.518  -7.247  0.00  0.00    +0.027 C 
ATOM    112  CG2 CYS A   3      44.228  51.359  -7.794  0.00  0.00    +0.002 C 
ATOM    113  CG1 CYS A   3      41.756  50.892  -7.924  0.00  0.00    +0.002 C 
ENDBRANCH  87 111
ENDBRANCH  83  87
ENDBRANCH  82  85
BRANCH  82 114
ATOM    114  CB  VAL A   4      47.587  47.109  -6.190  0.00  0.00    +0.027 C 
ATOM    115  CG2 VAL A   4      47.903  46.957  -7.666  0.00  0.00    +0.002 C 
BRANCH 114 116
ATOM    116  CG1 VAL A   4      48.871  47.058  -5.351  0.00  0.00    +0.002 C 
ATOM    117  CD1 VAL A   4      48.638  47.090  -3.855  0.00  0.00    +0.000 C 
ENDBRANCH 114 116
ENDBRANCH  82 114
ENDBRANCH  78  82
ENDBRANCH  77  79
BRANCH  77 118
ATOM    118  CB  GLU A   5      48.161  52.780  -4.735  0.00  0.00    +0.166 C 
BRANCH 118 119
ATOM    119  O   GLU A   5      47.022  52.941  -5.562  0.00  0.00    -0.380 OA
ATOM    120  H   GLU A   5      46.417  52.166  -5.443  0.00  0.00    +0.211 HD
ENDBRANCH 118 119
ENDBRANCH  77 118
ENDBRANCH  73  77
ENDBRANCH  72  75
ENDBRANCH  68  72
ENDBRANCH  67  69
BRANCH  67 121
ATOM    121  C   LEU A   7      56.780  51.798  -2.109  0.00  0.00    +0.228 C 
ATOM    122  O   LEU A   7      56.355  51.189  -1.118  0.00  0.00    -0.286 OA
ENDBRANCH  67 121
ENDBRANCH  66  67
ENDBRANCH  65  66
ENDBRANCH  64  65
ENDBRANCH  63  64
ENDBRANCH   1  63
TORSDOF 53
REMARK  Name = ../refined-set-2016/1fzk/1fzk_pocket.pdb
REMARK  322 active torsions:
REMARK  status: ('A' for Active; 'I' for Inactive)
REMARK    1  A    between atoms: _1  and  _3
REMARK    2  A    between atoms: _3  and  _4
REMARK    3  A    between atoms: _3  and  _6
REMARK    4  A    between atoms: _6  and  _7
REMARK    5  A    between atoms: _10  and  _12
REMARK    6  A    between atoms: _12  and  _13
REMARK    7  A    between atoms: _12  and  _15
REMARK    8  A    between atoms: _15  and  _16
REMARK    9  A    between atoms: _16  and  _17
REMARK   10  A    between atoms: _17  and  _18
REMARK   11  A    between atoms: _27  and  _29
REMARK   12  A    between atoms: _29  and  _30
REMARK   13  A    between atoms: _29  and  _32
REMARK   14  A    between atoms: _32  and  _33
REMARK   15  A    between atoms: _38  and  _39
REMARK   16  A    between atoms: _41  and  _43
REMARK   17  A    between atoms: _43  and  _44
REMARK   18  A    between atoms: _43  and  _46
REMARK   19  A    between atoms: _46  and  _47
REMARK   20  A    between atoms: _53  and  _55
REMARK   21  A    between atoms: _55  and  _56
REMARK   22  A    between atoms: _55  and  _58
REMARK   23  A    between atoms: _61  and  _63
REMARK   24  A    between atoms: _63  and  _64
REMARK   25  A    between atoms: _63  and  _66
REMARK   26  A    between atoms: _66  and  _67
REMARK   27  A    between atoms: _70  and  _72
REMARK   28  A    between atoms: _72  and  _73
REMARK   29  A    between atoms: _72  and  _75
REMARK   30  A    between atoms: _75  and  _76
REMARK   31  A    between atoms: _81  and  _82
REMARK   32  A    between atoms: _84  and  _86
REMARK   33  A    between atoms: _86  and  _87
REMARK   34  A    between atoms: _86  and  _89
REMARK   35  A    between atoms: _89  and  _90
REMARK   36  A    between atoms: _90  and  _91
REMARK   37  A    between atoms: _93  and  _95
REMARK   38  A    between atoms: _95  and  _96
REMARK   39  A    between atoms: _95  and  _98
REMARK   40  A    between atoms: _98  and  _99
REMARK   41  A    between atoms: _99  and  _100
REMARK   42  A    between atoms: _103  and  _105
REMARK   43  A    between atoms: _105  and  _106
REMARK   44  A    between atoms: _105  and  _108
REMARK   45  A    between atoms: _111  and  _113
REMARK   46  A    between atoms: _113  and  _114
REMARK   47  A    between atoms: _116  and  _118
REMARK   48  A    between atoms: _118  and  _119
REMARK   49  A    between atoms: _118  and  _121
REMARK   50  A    between atoms: _124  and  _126
REMARK   51  A    between atoms: _126  and  _127
REMARK   52  A    between atoms: _126  and  _129
REMARK   53  A    between atoms: _129  and  _130
REMARK   54  A    between atoms: _136  and  _138
REMARK   55  A    between atoms: _138  and  _139
REMARK   56  A    between atoms: _138  and  _141
REMARK   57  A    between atoms: _144  and  _146
REMARK   58  A    between atoms: _146  and  _147
REMARK   59  A    between atoms: _146  and  _149
REMARK   60  A    between atoms: _149  and  _150
REMARK   61  A    between atoms: _155  and  _156
REMARK   62  A    between atoms: _158  and  _160
REMARK   63  A    between atoms: _160  and  _161
REMARK   64  A    between atoms: _160  and  _163
REMARK   65  A    between atoms: _163  and  _164
REMARK   66  A    between atoms: _164  and  _165
REMARK   67  A    between atoms: _167  and  _169
REMARK   68  A    between atoms: _169  and  _170
REMARK   69  A    between atoms: _169  and  _172
REMARK   70  A    between atoms: _172  and  _173
REMARK   71  A    between atoms: _173  and  _174
REMARK   72  A    between atoms: _177  and  _179
REMARK   73  A    between atoms: _179  and  _180
REMARK   74  A    between atoms: _179  and  _182
REMARK   75  A    between atoms: _182  and  _183
REMARK   76  A    between atoms: _183  and  _184
REMARK   77  A    between atoms: _187  and  _189
REMARK   78  A    between atoms: _189  and  _190
REMARK   79  A    between atoms: _189  and  _192
REMARK   80  A    between atoms: _192  and  _193
REMARK   81  A    between atoms: _198  and  _199
REMARK   82  A    between atoms: _201  and  _203
REMARK   83  A    between atoms: _203  and  _204
REMARK   84  A    between atoms: _203  and  _206
REMARK   85  A    between atoms: _206  and  _207
REMARK   86  A    between atoms: _207  and  _208
REMARK   87  A    between atoms: _208  and  _209
REMARK   88  A    between atoms: _218  and  _220
REMARK   89  A    between atoms: _220  and  _221
REMARK   90  A    between atoms: _220  and  _223
REMARK   91  A    between atoms: _223  and  _224
REMARK   92  A    between atoms: _224  and  _225
REMARK   93  A    between atoms: _228  and  _230
REMARK   94  A    between atoms: _230  and  _231
REMARK   95  A    between atoms: _230  and  _233
REMARK   96  A    between atoms: _233  and  _234
REMARK   97  A    between atoms: _234  and  _235
REMARK   98  A    between atoms: _240  and  _242
REMARK   99  A    between atoms: _242  and  _243
REMARK  100  A    between atoms: _242  and  _245
REMARK  101  A    between atoms: _245  and  _246
REMARK  102  A    between atoms: _246  and  _247
REMARK  103  A    between atoms: _247  and  _248
REMARK  104  A    between atoms: _248  and  _249
REMARK  105  A    between atoms: _253  and  _255
REMARK  106  A    between atoms: _255  and  _256
REMARK  107  A    between atoms: _259  and  _261
REMARK  108  A    between atoms: _261  and  _262
REMARK  109  A    between atoms: _264  and  _266
REMARK  110  A    between atoms: _266  and  _267
REMARK  111  A    between atoms: _266  and  _269
REMARK  112  A    between atoms: _269  and  _270
REMARK  113  A    between atoms: _275  and  _277
REMARK  114  A    between atoms: _277  and  _278
REMARK  115  A    between atoms: _277  and  _280
REMARK  116  A    between atoms: _280  and  _281
REMARK  117  A    between atoms: _281  and  _282
REMARK  118  A    between atoms: _285  and  _287
REMARK  119  A    between atoms: _287  and  _288
REMARK  120  A    between atoms: _287  and  _290
REMARK  121  A    between atoms: _290  and  _291
REMARK  122  A    between atoms: _291  and  _292
REMARK  123  A    between atoms: _297  and  _299
REMARK  124  A    between atoms: _299  and  _300
REMARK  125  A    between atoms: _299  and  _302
REMARK  126  A    between atoms: _302  and  _303
REMARK  127  A    between atoms: _305  and  _307
REMARK  128  A    between atoms: _307  and  _308
REMARK  129  A    between atoms: _307  and  _310
REMARK  130  A    between atoms: _310  and  _311
REMARK  131  A    between atoms: _317  and  _319
REMARK  132  A    between atoms: _319  and  _320
REMARK  133  A    between atoms: _319  and  _322
REMARK  134  A    between atoms: _325  and  _327
REMARK  135  A    between atoms: _327  and  _328
REMARK  136  A    between atoms: _327  and  _330
REMARK  137  A    between atoms: _330  and  _331
REMARK  138  A    between atoms: _334  and  _336
REMARK  139  A    between atoms: _336  and  _337
REMARK  140  A    between atoms: _336  and  _339
REMARK  141  A    between atoms: _339  and  _340
REMARK  142  A    between atoms: _343  and  _345
REMARK  143  A    between atoms: _345  and  _346
REMARK  144  A    between atoms: _345  and  _348
REMARK  145  A    between atoms: _348  and  _349
REMARK  146  A    between atoms: _352  and  _354
REMARK  147  A    between atoms: _354  and  _355
REMARK  148  A    between atoms: _354  and  _357
REMARK  149  A    between atoms: _357  and  _358
REMARK  150  A    between atoms: _361  and  _363
REMARK  151  A    between atoms: _363  and  _364
REMARK  152  A    between atoms: _363  and  _366
REMARK  153  A    between atoms: _366  and  _367
REMARK  154  A    between atoms: _372  and  _373
REMARK  155  A    between atoms: _375  and  _377
REMARK  156  A    between atoms: _377  and  _378
REMARK  157  A    between atoms: _377  and  _380
REMARK  158  A    between atoms: _380  and  _381
REMARK  159  A    between atoms: _386  and  _387
REMARK  160  A    between atoms: _389  and  _391
REMARK  161  A    between atoms: _391  and  _392
REMARK  162  A    between atoms: _391  and  _394
REMARK  163  A    between atoms: _394  and  _395
REMARK  164  A    between atoms: _398  and  _400
REMARK  165  A    between atoms: _400  and  _401
REMARK  166  A    between atoms: _400  and  _403
REMARK  167  A    between atoms: _403  and  _404
REMARK  168  A    between atoms: _404  and  _405
REMARK  169  A    between atoms: _410  and  _412
REMARK  170  A    between atoms: _412  and  _413
REMARK  171  A    between atoms: _412  and  _415
REMARK  172  A    between atoms: _418  and  _420
REMARK  173  A    between atoms: _420  and  _421
REMARK  174  A    between atoms: _420  and  _423
REMARK  175  A    between atoms: _423  and  _424
REMARK  176  A    between atoms: _427  and  _429
REMARK  177  A    between atoms: _429  and  _430
REMARK  178  A    between atoms: _429  and  _432
REMARK  179  A    between atoms: _432  and  _433
REMARK  180  A    between atoms: _435  and  _437
REMARK  181  A    between atoms: _437  and  _438
REMARK  182  A    between atoms: _440  and  _442
REMARK  183  A    between atoms: _442  and  _443
REMARK  184  A    between atoms: _442  and  _445
REMARK  185  A    between atoms: _445  and  _446
REMARK  186  A    between atoms: _446  and  _744
REMARK  187  A    between atoms: _447  and  _449
REMARK  188  A    between atoms: _449  and  _450
REMARK  189  A    between atoms: _449  and  _452
REMARK  190  A    between atoms: _452  and  _453
REMARK  191  A    between atoms: _458  and  _459
REMARK  192  A    between atoms: _461  and  _463
REMARK  193  A    between atoms: _463  and  _464
REMARK  194  A    between atoms: _463  and  _466
REMARK  195  A    between atoms: _466  and  _467
REMARK  196  A    between atoms: _467  and  _468
REMARK  197  A    between atoms: _473  and  _475
REMARK  198  A    between atoms: _475  and  _476
REMARK  199  A    between atoms: _475  and  _478
REMARK  200  A    between atoms: _478  and  _479
REMARK  201  A    between atoms: _479  and  _480
REMARK  202  A    between atoms: _485  and  _487
REMARK  203  A    between atoms: _487  and  _488
REMARK  204  A    between atoms: _487  and  _490
REMARK  205  A    between atoms: _490  and  _491
REMARK  206  A    between atoms: _496  and  _497
REMARK  207  A    between atoms: _499  and  _501
REMARK  208  A    between atoms: _501  and  _502
REMARK  209  A    between atoms: _505  and  _507
REMARK  210  A    between atoms: _507  and  _508
REMARK  211  A    between atoms: _507  and  _510
REMARK  212  A    between atoms: _510  and  _511
REMARK  213  A    between atoms: _516  and  _517
REMARK  214  A    between atoms: _519  and  _521
REMARK  215  A    between atoms: _521  and  _522
REMARK  216  A    between atoms: _521  and  _524
REMARK  217  A    between atoms: _524  and  _525
REMARK  218  A    between atoms: _530  and  _531
REMARK  219  A    between atoms: _533  and  _535
REMARK  220  A    between atoms: _535  and  _536
REMARK  221  A    between atoms: _535  and  _538
REMARK  222  A    between atoms: _538  and  _539
REMARK  223  A    between atoms: _542  and  _544
REMARK  224  A    between atoms: _544  and  _545
REMARK  225  A    between atoms: _544  and  _547
REMARK  226  A    between atoms: _547  and  _548
REMARK  227  A    between atoms: _558  and  _560
REMARK  228  A    between atoms: _560  and  _561
REMARK  229  A    between atoms: _564  and  _566
REMARK  230  A    between atoms: _566  and  _567
REMARK  231  A    between atoms: _570  and  _572
REMARK  232  A    between atoms: _572  and  _573
REMARK  233  A    between atoms: _572  and  _575
REMARK  234  A    between atoms: _575  and  _576
REMARK  235  A    between atoms: _579  and  _581
REMARK  236  A    between atoms: _581  and  _582
REMARK  237  A    between atoms: _581  and  _584
REMARK  238  A    between atoms: _584  and  _585
REMARK  239  A    between atoms: _588  and  _590
REMARK  240  A    between atoms: _590  and  _591
REMARK  241  A    between atoms: _590  and  _593
REMARK  242  A    between atoms: _593  and  _594
REMARK  243  A    between atoms: _597  and  _599
REMARK  244  A    between atoms: _599  and  _600
REMARK  245  A    between atoms: _599  and  _602
REMARK  246  A    between atoms: _602  and  _603
REMARK  247  A    between atoms: _603  and  _604
REMARK  248  A    between atoms: _604  and  _605
REMARK  249  A    between atoms: _605  and  _606
REMARK  250  A    between atoms: _610  and  _612
REMARK  251  A    between atoms: _612  and  _613
REMARK  252  A    between atoms: _612  and  _615
REMARK  253  A    between atoms: _615  and  _616
REMARK  254  A    between atoms: _621  and  _623
REMARK  255  A    between atoms: _623  and  _624
REMARK  256  A    between atoms: _623  and  _626
REMARK  257  A    between atoms: _626  and  _627
REMARK  258  A    between atoms: _627  and  _628
REMARK  259  A    between atoms: _628  and  _629
REMARK  260  A    between atoms: _629  and  _630
REMARK  261  A    between atoms: _634  and  _636
REMARK  262  A    between atoms: _636  and  _637
REMARK  263  A    between atoms: _636  and  _639
REMARK  264  A    between atoms: _639  and  _640
REMARK  265  A    between atoms: _650  and  _652
REMARK  266  A    between atoms: _652  and  _653
REMARK  267  A    between atoms: _656  and  _658
REMARK  268  A    between atoms: _658  and  _659
REMARK  269  A    between atoms: _661  and  _663
REMARK  270  A    between atoms: _663  and  _664
REMARK  271  A    between atoms: _667  and  _669
REMARK  272  A    between atoms: _669  and  _670
REMARK  273  A    between atoms: _673  and  _675
REMARK  274  A    between atoms: _675  and  _676
REMARK  275  A    between atoms: _675  and  _678
REMARK  276  A    between atoms: _678  and  _679
REMARK  277  A    between atoms: _684  and  _685
REMARK  278  A    between atoms: _687  and  _689
REMARK  279  A    between atoms: _689  and  _690
REMARK  280  A    between atoms: _689  and  _692
REMARK  281  A    between atoms: _692  and  _693
REMARK  282  A    between atoms: _698  and  _699
REMARK  283  A    between atoms: _701  and  _703
REMARK  284  A    between atoms: _703  and  _704
REMARK  285  A    between atoms: _703  and  _706
REMARK  286  A    between atoms: _706  and  _707
REMARK  287  A    between atoms: _712  and  _713
REMARK  288  A    between atoms: _715  and  _717
REMARK  289  A    between atoms: _717  and  _718
REMARK  290  A    between atoms: _717  and  _720
REMARK  291  A    between atoms: _720  and  _721
REMARK  292  A    between atoms: _724  and  _726
REMARK  293  A    between atoms: _726  and  _727
REMARK  294  A    between atoms: _729  and  _731
REMARK  295  A    between atoms: _731  and  _732
REMARK  296  A    between atoms: _731  and  _734
REMARK  297  A    between atoms: _734  and  _735
REMARK  298  A    between atoms: _738  and  _740
REMARK  299  A    between atoms: _740  and  _741
REMARK  300  A    between atoms: _740  and  _743
REMARK  301  A    between atoms: _743  and  _744
REMARK  302  A    between atoms: _745  and  _747
REMARK  303  A    between atoms: _747  and  _748
REMARK  304  A    between atoms: _747  and  _750
REMARK  305  A    between atoms: _753  and  _755
REMARK  306  A    between atoms: _755  and  _756
REMARK  307  A    between atoms: _755  and  _758
REMARK  308  A    between atoms: _758  and  _759
REMARK  309  A    between atoms: _759  and  _760
REMARK  310  A    between atoms: _763  and  _765
REMARK  311  A    between atoms: _765  and  _766
REMARK  312  A    between atoms: _765  and  _768
REMARK  313  A    between atoms: _768  and  _769
REMARK  314  A    between atoms: _779  and  _781
REMARK  315  A    between atoms: _781  and  _782
REMARK  316  A    between atoms: _781  and  _784
REMARK  317  A    between atoms: _784  and  _785
REMARK  318  A    between atoms: _788  and  _790
REMARK  319  A    between atoms: _790  and  _791
REMARK  320  A    between atoms: _790  and  _793
REMARK  321  A    between atoms: _793  and  _794
REMARK  322  A    between atoms: _799  and  _800
REMARK                            x       y       z     vdW  Elec       q    Type
REMARK                         _______ _______ _______ _____ _____    ______ ____
ROOT
ATOM      1  CA  GLN A   3      47.459  49.393 -11.310  0.00  0.00    +0.149 C 
ENDROOT
BRANCH   1   3
ATOM      2  C   GLN A   2      48.805  51.263 -10.544  0.00  0.00    +0.241 C 
ATOM      3  N   GLN A   3      48.082  50.185 -10.258  0.00  0.00    -0.297 N 
ATOM      4  H   GLN A   3      47.959  49.902  -9.265  0.00  0.00    +0.150 HD
ATOM      5  O   GLN A   2      49.002  51.659 -11.697  0.00  0.00    -0.273 OA
BRANCH   2   6
ATOM      6  CA  GLN A   2      49.415  51.988  -9.361  0.00  0.00    +0.149 C 
BRANCH   6   9
ATOM      7  C   TYR A   1      51.708  52.069  -8.510  0.00  0.00    +0.239 C 
ATOM      8  O   TYR A   1      51.355  52.397  -7.378  0.00  0.00    -0.274 OA
ATOM      9  N   GLN A   2      50.862  51.903  -9.520  0.00  0.00    -0.297 N 
ATOM     10  H   GLN A   2      51.248  51.704 -10.465  0.00  0.00    +0.150 HD
BRANCH   7  11
ATOM     11  CA  TYR A   1      53.173  51.856  -8.854  0.00  0.00    +0.149 C 
BRANCH  11  12
ATOM     12  N   TYR A   1      54.121  52.430  -7.906  0.00  0.00    -0.238 NA
ATOM     13  H   TYR A   1      53.799  52.686  -6.951  0.00  0.00    +0.142 HD
ENDBRANCH  11  12
BRANCH  11  14
ATOM     14  CB  TYR A   1      53.441  50.348  -8.979  0.00  0.00    +0.053 C 
BRANCH  14  15
ATOM     15  CG  TYR A   1      53.672  49.661  -7.645  0.00  0.00    -0.020 A 
ATOM     16  CD2 TYR A   1      52.609  49.368  -6.789  0.00  0.00    -0.001 A 
ATOM     17  CE2 TYR A   1      52.832  48.774  -5.534  0.00  0.00    +0.036 A 
ATOM     18  CZ  TYR A   1      54.127  48.475  -5.140  0.00  0.00    +0.134 A 
ATOM     19  CE1 TYR A   1      55.195  48.755  -5.978  0.00  0.00    +0.036 A 
ATOM     20  CD1 TYR A   1      54.962  49.343  -7.222  0.00  0.00    -0.001 A 
BRANCH  18  21
ATOM     21  OH  TYR A   1      54.362  47.912  -3.904  0.00  0.00    -0.506 OA
ATOM     22  HH  TYR A   1      54.816  47.040  -4.021  0.00  0.00    +0.292 HD
ENDBRANCH  18  21
ENDBRANCH  14  15
ENDBRANCH  11  14
ENDBRANCH   7  11
ENDBRANCH   6   9
BRANCH   6  23
ATOM     23  CB  GLN A   2      48.902  53.431  -9.325  0.00  0.00    +0.039 C 
BRANCH  23  24
ATOM     24  CG  GLN A   2      47.421  53.475  -8.965  0.00  0.00    +0.087 C 
BRANCH  24  25
ATOM     25  CD  GLN A   2      46.889  54.871  -8.713  0.00  0.00    +0.219 C 
ATOM     26  NE2 GLN A   2      46.594  55.173  -7.455  0.00  0.00    -0.329 N 
ATOM     27 HE21 GLN A   2      46.736  54.468  -6.704  0.00  0.00    +0.145 HD
ATOM     28 HE22 GLN A   2      46.221  56.115  -7.220  0.00  0.00    +0.145 HD
ATOM     29  OE1 GLN A   2      46.740  55.669  -9.640  0.00  0.00    -0.275 OA
ENDBRANCH  24  25
ENDBRANCH  23  24
ENDBRANCH   6  23
ENDBRANCH   2   6
ENDBRANCH   1   3
BRANCH   1  30
ATOM     30  C   GLN A   3      45.983  49.135 -11.021  0.00  0.00    +0.241 C 
ATOM     31  O   GLN A   3      45.596  48.882  -9.878  0.00  0.00    -0.273 OA
ATOM     32  N   TYR A   4      45.170  49.208 -12.074  0.00  0.00    -0.297 N 
ATOM     33  H   TYR A   4      45.589  49.411 -13.004  0.00  0.00    +0.150 HD
BRANCH  32  34
ATOM     34  CA  TYR A   4      43.722  49.019 -11.997  0.00  0.00    +0.153 C 
BRANCH  34  35
ATOM     35  C   TYR A   4      43.246  47.805 -12.789  0.00  0.00    +0.241 C 
ATOM     36  N   ALA A   5      42.168  47.183 -12.309  0.00  0.00    -0.297 N 
ATOM     37  H   ALA A   5      41.750  47.526 -11.421  0.00  0.00    +0.150 HD
ATOM     38  O   TYR A   4      43.825  47.473 -13.825  0.00  0.00    -0.273 OA
BRANCH  36  39
ATOM     39  CA  ALA A   5      41.548  46.038 -12.980  0.00  0.00    +0.149 C 
ATOM     40  CB  ALA A   5      41.968  44.731 -12.311  0.00  0.00    +0.031 C 
BRANCH  39  41
ATOM     41  C   ALA A   5      40.026  46.168 -12.932  0.00  0.00    +0.241 C 
ATOM     42  O   ALA A   5      39.473  46.748 -11.995  0.00  0.00    -0.273 OA
ATOM     43  N   TYR A   6      39.352  45.638 -13.951  0.00  0.00    -0.298 N 
ATOM     44  H   TYR A   6      39.884  45.203 -14.731  0.00  0.00    +0.150 HD
BRANCH  43  45
ATOM     45  CA  TYR A   6      37.892  45.645 -14.013  0.00  0.00    +0.141 C 
BRANCH  45  46
ATOM     46  C   TYR A   6      37.493  44.189 -14.225  0.00  0.00    +0.227 C 
ATOM     47  O   TYR A   6      37.977  43.534 -15.156  0.00  0.00    -0.286 OA
ENDBRANCH  45  46
BRANCH  45  48
ATOM     48  CB  TYR A   6      37.377  46.505 -15.183  0.00  0.00    +0.054 C 
BRANCH  48  49
ATOM     49  CG  TYR A   6      35.860  46.594 -15.283  0.00  0.00    -0.020 A 
ATOM     50  CD2 TYR A   6      35.087  46.991 -14.191  0.00  0.00    -0.001 A 
ATOM     51  CE2 TYR A   6      33.691  47.097 -14.284  0.00  0.00    +0.036 A 
ATOM     52  CZ  TYR A   6      33.057  46.805 -15.488  0.00  0.00    +0.134 A 
ATOM     53  CE1 TYR A   6      33.803  46.408 -16.588  0.00  0.00    +0.036 A 
ATOM     54  CD1 TYR A   6      35.198  46.303 -16.483  0.00  0.00    -0.001 A 
BRANCH  52  55
ATOM     55  OH  TYR A   6      31.686  46.921 -15.586  0.00  0.00    -0.506 OA
ATOM     56  HH  TYR A   6      31.317  47.212 -14.714  0.00  0.00    +0.292 HD
ENDBRANCH  52  55
ENDBRANCH  48  49
ENDBRANCH  45  48
ENDBRANCH  43  45
ENDBRANCH  39  41
ENDBRANCH  36  39
ENDBRANCH  34  35
BRANCH  34  57
ATOM     57  CB  TYR A   4      42.979  50.228 -12.584  0.00  0.00    +0.055 C 
BRANCH  57  58
ATOM     58  CG  TYR A   4      43.239  51.563 -11.920  0.00  0.00    -0.020 A 
ATOM     59  CD2 TYR A   4      42.219  52.235 -11.250  0.00  0.00    -0.001 A 
ATOM     60  CE2 TYR A   4      42.447  53.474 -10.649  0.00  0.00    +0.036 A 
ATOM     61  CZ  TYR A   4      43.704  54.047 -10.719  0.00  0.00    +0.134 A 
ATOM     62  CE1 TYR A   4      44.733  53.402 -11.382  0.00  0.00    +0.036 A 
ATOM     63  CD1 TYR A   4      44.496  52.160 -11.978  0.00  0.00    -0.001 A 
BRANCH  61  64
ATOM     64  OH  TYR A   4      43.939  55.259 -10.104  0.00  0.00    -0.506 OA
ATOM     65  HH  TYR A   4      44.882  55.524 -10.250  0.00  0.00    +0.292 HD
ENDBRANCH  61  64
ENDBRANCH  57  58
ENDBRANCH  34  57
ENDBRANCH  32  34
ENDBRANCH   1  30
BRANCH   1  66
ATOM     66  CB  GLN A   3      48.223  48.079 -11.478  0.00  0.00    +0.039 C 
BRANCH  66  67
ATOM     67  CG  GLN A   3      49.709  48.301 -11.718  0.00  0.00    +0.087 C 
BRANCH  67  68
ATOM     68  CD  GLN A   3      50.474  47.023 -11.987  0.00  0.00    +0.219 C 
ATOM     69  NE2 GLN A   3      49.767  45.900 -12.007  0.00  0.00    -0.329 N 
ATOM     70 HE21 GLN A   3      48.740  45.929 -11.843  0.00  0.00    +0.145 HD
ATOM     71 HE22 GLN A   3      50.240  44.991 -12.186  0.00  0.00    +0.145 HD
ATOM     72  OE1 GLN A   3      51.696  47.047 -12.175  0.00  0.00    -0.275 OA
ENDBRANCH  67  68
ENDBRANCH  66  67
ENDBRANCH   1  66
TORSDOF 27
REMARK  Name = ../refined-set-2016/1fzk/1fzk_pocket.pdb
REMARK  322 active torsions:
REMARK  status: ('A' for Active; 'I' for Inactive)
REMARK    1  A    between atoms: _1  and  _3
REMARK    2  A    between atoms: _3  and  _4
REMARK    3  A    between atoms: _3  and  _6
REMARK    4  A    between atoms: _6  and  _7
REMARK    5  A    between atoms: _10  and  _12
REMARK    6  A    between atoms: _12  and  _13
REMARK    7  A    between atoms: _12  and  _15
REMARK    8  A    between atoms: _15  and  _16
REMARK    9  A    between atoms: _16  and  _17
REMARK   10  A    between atoms: _17  and  _18
REMARK   11  A    between atoms: _27  and  _29
REMARK   12  A    between atoms: _29  and  _30
REMARK   13  A    between atoms: _29  and  _32
REMARK   14  A    between atoms: _32  and  _33
REMARK   15  A    between atoms: _38  and  _39
REMARK   16  A    between atoms: _41  and  _43
REMARK   17  A    between atoms: _43  and  _44
REMARK   18  A    between atoms: _43  and  _46
REMARK   19  A    between atoms: _46  and  _47
REMARK   20  A    between atoms: _53  and  _55
REMARK   21  A    between atoms: _55  and  _56
REMARK   22  A    between atoms: _55  and  _58
REMARK   23  A    between atoms: _61  and  _63
REMARK   24  A    between atoms: _63  and  _64
REMARK   25  A    between atoms: _63  and  _66
REMARK   26  A    between atoms: _66  and  _67
REMARK   27  A    between atoms: _70  and  _72
REMARK   28  A    between atoms: _72  and  _73
REMARK   29  A    between atoms: _72  and  _75
REMARK   30  A    between atoms: _75  and  _76
REMARK   31  A    between atoms: _81  and  _82
REMARK   32  A    between atoms: _84  and  _86
REMARK   33  A    between atoms: _86  and  _87
REMARK   34  A    between atoms: _86  and  _89
REMARK   35  A    between atoms: _89  and  _90
REMARK   36  A    between atoms: _90  and  _91
REMARK   37  A    between atoms: _93  and  _95
REMARK   38  A    between atoms: _95  and  _96
REMARK   39  A    between atoms: _95  and  _98
REMARK   40  A    between atoms: _98  and  _99
REMARK   41  A    between atoms: _99  and  _100
REMARK   42  A    between atoms: _103  and  _105
REMARK   43  A    between atoms: _105  and  _106
REMARK   44  A    between atoms: _105  and  _108
REMARK   45  A    between atoms: _111  and  _113
REMARK   46  A    between atoms: _113  and  _114
REMARK   47  A    between atoms: _116  and  _118
REMARK   48  A    between atoms: _118  and  _119
REMARK   49  A    between atoms: _118  and  _121
REMARK   50  A    between atoms: _124  and  _126
REMARK   51  A    between atoms: _126  and  _127
REMARK   52  A    between atoms: _126  and  _129
REMARK   53  A    between atoms: _129  and  _130
REMARK   54  A    between atoms: _136  and  _138
REMARK   55  A    between atoms: _138  and  _139
REMARK   56  A    between atoms: _138  and  _141
REMARK   57  A    between atoms: _144  and  _146
REMARK   58  A    between atoms: _146  and  _147
REMARK   59  A    between atoms: _146  and  _149
REMARK   60  A    between atoms: _149  and  _150
REMARK   61  A    between atoms: _155  and  _156
REMARK   62  A    between atoms: _158  and  _160
REMARK   63  A    between atoms: _160  and  _161
REMARK   64  A    between atoms: _160  and  _163
REMARK   65  A    between atoms: _163  and  _164
REMARK   66  A    between atoms: _164  and  _165
REMARK   67  A    between atoms: _167  and  _169
REMARK   68  A    between atoms: _169  and  _170
REMARK   69  A    between atoms: _169  and  _172
REMARK   70  A    between atoms: _172  and  _173
REMARK   71  A    between atoms: _173  and  _174
REMARK   72  A    between atoms: _177  and  _179
REMARK   73  A    between atoms: _179  and  _180
REMARK   74  A    between atoms: _179  and  _182
REMARK   75  A    between atoms: _182  and  _183
REMARK   76  A    between atoms: _183  and  _184
REMARK   77  A    between atoms: _187  and  _189
REMARK   78  A    between atoms: _189  and  _190
REMARK   79  A    between atoms: _189  and  _192
REMARK   80  A    between atoms: _192  and  _193
REMARK   81  A    between atoms: _198  and  _199
REMARK   82  A    between atoms: _201  and  _203
REMARK   83  A    between atoms: _203  and  _204
REMARK   84  A    between atoms: _203  and  _206
REMARK   85  A    between atoms: _206  and  _207
REMARK   86  A    between atoms: _207  and  _208
REMARK   87  A    between atoms: _208  and  _209
REMARK   88  A    between atoms: _218  and  _220
REMARK   89  A    between atoms: _220  and  _221
REMARK   90  A    between atoms: _220  and  _223
REMARK   91  A    between atoms: _223  and  _224
REMARK   92  A    between atoms: _224  and  _225
REMARK   93  A    between atoms: _228  and  _230
REMARK   94  A    between atoms: _230  and  _231
REMARK   95  A    between atoms: _230  and  _233
REMARK   96  A    between atoms: _233  and  _234
REMARK   97  A    between atoms: _234  and  _235
REMARK   98  A    between atoms: _240  and  _242
REMARK   99  A    between atoms: _242  and  _243
REMARK  100  A    between atoms: _242  and  _245
REMARK  101  A    between atoms: _245  and  _246
REMARK  102  A    between atoms: _246  and  _247
REMARK  103  A    between atoms: _247  and  _248
REMARK  104  A    between atoms: _248  and  _249
REMARK  105  A    between atoms: _253  and  _255
REMARK  106  A    between atoms: _255  and  _256
REMARK  107  A    between atoms: _259  and  _261
REMARK  108  A    between atoms: _261  and  _262
REMARK  109  A    between atoms: _264  and  _266
REMARK  110  A    between atoms: _266  and  _267
REMARK  111  A    between atoms: _266  and  _269
REMARK  112  A    between atoms: _269  and  _270
REMARK  113  A    between atoms: _275  and  _277
REMARK  114  A    between atoms: _277  and  _278
REMARK  115  A    between atoms: _277  and  _280
REMARK  116  A    between atoms: _280  and  _281
REMARK  117  A    between atoms: _281  and  _282
REMARK  118  A    between atoms: _285  and  _287
REMARK  119  A    between atoms: _287  and  _288
REMARK  120  A    between atoms: _287  and  _290
REMARK  121  A    between atoms: _290  and  _291
REMARK  122  A    between atoms: _291  and  _292
REMARK  123  A    between atoms: _297  and  _299
REMARK  124  A    between atoms: _299  and  _300
REMARK  125  A    between atoms: _299  and  _302
REMARK  126  A    between atoms: _302  and  _303
REMARK  127  A    between atoms: _305  and  _307
REMARK  128  A    between atoms: _307  and  _308
REMARK  129  A    between atoms: _307  and  _310
REMARK  130  A    between atoms: _310  and  _311
REMARK  131  A    between atoms: _317  and  _319
REMARK  132  A    between atoms: _319  and  _320
REMARK  133  A    between atoms: _319  and  _322
REMARK  134  A    between atoms: _325  and  _327
REMARK  135  A    between atoms: _327  and  _328
REMARK  136  A    between atoms: _327  and  _330
REMARK  137  A    between atoms: _330  and  _331
REMARK  138  A    between atoms: _334  and  _336
REMARK  139  A    between atoms: _336  and  _337
REMARK  140  A    between atoms: _336  and  _339
REMARK  141  A    between atoms: _339  and  _340
REMARK  142  A    between atoms: _343  and  _345
REMARK  143  A    between atoms: _345  and  _346
REMARK  144  A    between atoms: _345  and  _348
REMARK  145  A    between atoms: _348  and  _349
REMARK  146  A    between atoms: _352  and  _354
REMARK  147  A    between atoms: _354  and  _355
REMARK  148  A    between atoms: _354  and  _357
REMARK  149  A    between atoms: _357  and  _358
REMARK  150  A    between atoms: _361  and  _363
REMARK  151  A    between atoms: _363  and  _364
REMARK  152  A    between atoms: _363  and  _366
REMARK  153  A    between atoms: _366  and  _367
REMARK  154  A    between atoms: _372  and  _373
REMARK  155  A    between atoms: _375  and  _377
REMARK  156  A    between atoms: _377  and  _378
REMARK  157  A    between atoms: _377  and  _380
REMARK  158  A    between atoms: _380  and  _381
REMARK  159  A    between atoms: _386  and  _387
REMARK  160  A    between atoms: _389  and  _391
REMARK  161  A    between atoms: _391  and  _392
REMARK  162  A    between atoms: _391  and  _394
REMARK  163  A    between atoms: _394  and  _395
REMARK  164  A    between atoms: _398  and  _400
REMARK  165  A    between atoms: _400  and  _401
REMARK  166  A    between atoms: _400  and  _403
REMARK  167  A    between atoms: _403  and  _404
REMARK  168  A    between atoms: _404  and  _405
REMARK  169  A    between atoms: _410  and  _412
REMARK  170  A    between atoms: _412  and  _413
REMARK  171  A    between atoms: _412  and  _415
REMARK  172  A    between atoms: _418  and  _420
REMARK  173  A    between atoms: _420  and  _421
REMARK  174  A    between atoms: _420  and  _423
REMARK  175  A    between atoms: _423  and  _424
REMARK  176  A    between atoms: _427  and  _429
REMARK  177  A    between atoms: _429  and  _430
REMARK  178  A    between atoms: _429  and  _432
REMARK  179  A    between atoms: _432  and  _433
REMARK  180  A    between atoms: _435  and  _437
REMARK  181  A    between atoms: _437  and  _438
REMARK  182  A    between atoms: _440  and  _442
REMARK  183  A    between atoms: _442  and  _443
REMARK  184  A    between atoms: _442  and  _445
REMARK  185  A    between atoms: _445  and  _446
REMARK  186  A    between atoms: _446  and  _744
REMARK  187  A    between atoms: _447  and  _449
REMARK  188  A    between atoms: _449  and  _450
REMARK  189  A    between atoms: _449  and  _452
REMARK  190  A    between atoms: _452  and  _453
REMARK  191  A    between atoms: _458  and  _459
REMARK  192  A    between atoms: _461  and  _463
REMARK  193  A    between atoms: _463  and  _464
REMARK  194  A    between atoms: _463  and  _466
REMARK  195  A    between atoms: _466  and  _467
REMARK  196  A    between atoms: _467  and  _468
REMARK  197  A    between atoms: _473  and  _475
REMARK  198  A    between atoms: _475  and  _476
REMARK  199  A    between atoms: _475  and  _478
REMARK  200  A    between atoms: _478  and  _479
REMARK  201  A    between atoms: _479  and  _480
REMARK  202  A    between atoms: _485  and  _487
REMARK  203  A    between atoms: _487  and  _488
REMARK  204  A    between atoms: _487  and  _490
REMARK  205  A    between atoms: _490  and  _491
REMARK  206  A    between atoms: _496  and  _497
REMARK  207  A    between atoms: _499  and  _501
REMARK  208  A    between atoms: _501  and  _502
REMARK  209  A    between atoms: _505  and  _507
REMARK  210  A    between atoms: _507  and  _508
REMARK  211  A    between atoms: _507  and  _510
REMARK  212  A    between atoms: _510  and  _511
REMARK  213  A    between atoms: _516  and  _517
REMARK  214  A    between atoms: _519  and  _521
REMARK  215  A    between atoms: _521  and  _522
REMARK  216  A    between atoms: _521  and  _524
REMARK  217  A    between atoms: _524  and  _525
REMARK  218  A    between atoms: _530  and  _531
REMARK  219  A    between atoms: _533  and  _535
REMARK  220  A    between atoms: _535  and  _536
REMARK  221  A    between atoms: _535  and  _538
REMARK  222  A    between atoms: _538  and  _539
REMARK  223  A    between atoms: _542  and  _544
REMARK  224  A    between atoms: _544  and  _545
REMARK  225  A    between atoms: _544  and  _547
REMARK  226  A    between atoms: _547  and  _548
REMARK  227  A    between atoms: _558  and  _560
REMARK  228  A    between atoms: _560  and  _561
REMARK  229  A    between atoms: _564  and  _566
REMARK  230  A    between atoms: _566  and  _567
REMARK  231  A    between atoms: _570  and  _572
REMARK  232  A    between atoms: _572  and  _573
REMARK  233  A    between atoms: _572  and  _575
REMARK  234  A    between atoms: _575  and  _576
REMARK  235  A    between atoms: _579  and  _581
REMARK  236  A    between atoms: _581  and  _582
REMARK  237  A    between atoms: _581  and  _584
REMARK  238  A    between atoms: _584  and  _585
REMARK  239  A    between atoms: _588  and  _590
REMARK  240  A    between atoms: _590  and  _591
REMARK  241  A    between atoms: _590  and  _593
REMARK  242  A    between atoms: _593  and  _594
REMARK  243  A    between atoms: _597  and  _599
REMARK  244  A    between atoms: _599  and  _600
REMARK  245  A    between atoms: _599  and  _602
REMARK  246  A    between atoms: _602  and  _603
REMARK  247  A    between atoms: _603  and  _604
REMARK  248  A    between atoms: _604  and  _605
REMARK  249  A    between atoms: _605  and  _606
REMARK  250  A    between atoms: _610  and  _612
REMARK  251  A    between atoms: _612  and  _613
REMARK  252  A    between atoms: _612  and  _615
REMARK  253  A    between atoms: _615  and  _616
REMARK  254  A    between atoms: _621  and  _623
REMARK  255  A    between atoms: _623  and  _624
REMARK  256  A    between atoms: _623  and  _626
REMARK  257  A    between atoms: _626  and  _627
REMARK  258  A    between atoms: _627  and  _628
REMARK  259  A    between atoms: _628  and  _629
REMARK  260  A    between atoms: _629  and  _630
REMARK  261  A    between atoms: _634  and  _636
REMARK  262  A    between atoms: _636  and  _637
REMARK  263  A    between atoms: _636  and  _639
REMARK  264  A    between atoms: _639  and  _640
REMARK  265  A    between atoms: _650  and  _652
REMARK  266  A    between atoms: _652  and  _653
REMARK  267  A    between atoms: _656  and  _658
REMARK  268  A    between atoms: _658  and  _659
REMARK  269  A    between atoms: _661  and  _663
REMARK  270  A    between atoms: _663  and  _664
REMARK  271  A    between atoms: _667  and  _669
REMARK  272  A    between atoms: _669  and  _670
REMARK  273  A    between atoms: _673  and  _675
REMARK  274  A    between atoms: _675  and  _676
REMARK  275  A    between atoms: _675  and  _678
REMARK  276  A    between atoms: _678  and  _679
REMARK  277  A    between atoms: _684  and  _685
REMARK  278  A    between atoms: _687  and  _689
REMARK  279  A    between atoms: _689  and  _690
REMARK  280  A    between atoms: _689  and  _692
REMARK  281  A    between atoms: _692  and  _693
REMARK  282  A    between atoms: _698  and  _699
REMARK  283  A    between atoms: _701  and  _703
REMARK  284  A    between atoms: _703  and  _704
REMARK  285  A    between atoms: _703  and  _706
REMARK  286  A    between atoms: _706  and  _707
REMARK  287  A    between atoms: _712  and  _713
REMARK  288  A    between atoms: _715  and  _717
REMARK  289  A    between atoms: _717  and  _718
REMARK  290  A    between atoms: _717  and  _720
REMARK  291  A    between atoms: _720  and  _721
REMARK  292  A    between atoms: _724  and  _726
REMARK  293  A    between atoms: _726  and  _727
REMARK  294  A    between atoms: _729  and  _731
REMARK  295  A    between atoms: _731  and  _732
REMARK  296  A    between atoms: _731  and  _734
REMARK  297  A    between atoms: _734  and  _735
REMARK  298  A    between atoms: _738  and  _740
REMARK  299  A    between atoms: _740  and  _741
REMARK  300  A    between atoms: _740  and  _743
REMARK  301  A    between atoms: _743  and  _744
REMARK  302  A    between atoms: _745  and  _747
REMARK  303  A    between atoms: _747  and  _748
REMARK  304  A    between atoms: _747  and  _750
REMARK  305  A    between atoms: _753  and  _755
REMARK  306  A    between atoms: _755  and  _756
REMARK  307  A    between atoms: _755  and  _758
REMARK  308  A    between atoms: _758  and  _759
REMARK  309  A    between atoms: _759  and  _760
REMARK  310  A    between atoms: _763  and  _765
REMARK  311  A    between atoms: _765  and  _766
REMARK  312  A    between atoms: _765  and  _768
REMARK  313  A    between atoms: _768  and  _769
REMARK  314  A    between atoms: _779  and  _781
REMARK  315  A    between atoms: _781  and  _782
REMARK  316  A    between atoms: _781  and  _784
REMARK  317  A    between atoms: _784  and  _785
REMARK  318  A    between atoms: _788  and  _790
REMARK  319  A    between atoms: _790  and  _791
REMARK  320  A    between atoms: _790  and  _793
REMARK  321  A    between atoms: _793  and  _794
REMARK  322  A    between atoms: _799  and  _800
REMARK                            x       y       z     vdW  Elec       q    Type
REMARK                         _______ _______ _______ _____ _____    ______ ____
ROOT
ATOM      1  CA  TYR A   1      42.575  47.793 -17.200  0.00  0.00    +0.149 C 
ENDROOT
BRANCH   1   2
ATOM      2  C   TYR A   1      43.610  48.849 -17.602  0.00  0.00    +0.239 C 
ATOM      3  N   ILE A   2      44.225  49.499 -16.616  0.00  0.00    -0.298 N 
ATOM      4  H   ILE A   2      43.979  49.281 -15.629  0.00  0.00    +0.150 HD
ATOM      5  O   TYR A   1      43.861  49.062 -18.793  0.00  0.00    -0.274 OA
BRANCH   3   6
ATOM      6  CA  ILE A   2      45.243  50.516 -16.897  0.00  0.00    +0.137 C 
BRANCH   6   7
ATOM      7  C   ILE A   2      46.299  50.500 -15.787  0.00  0.00    +0.227 C 
ATOM      8  O   ILE A   2      45.996  50.153 -14.641  0.00  0.00    -0.286 OA
ENDBRANCH   6   7
BRANCH   6   9
ATOM      9  CB  ILE A   2      44.591  51.933 -17.015  0.00  0.00    +0.026 C 
ATOM     10  CG2 ILE A   2      44.180  52.440 -15.637  0.00  0.00    +0.002 C 
BRANCH   9  11
ATOM     11  CG1 ILE A   2      45.561  52.918 -17.674  0.00  0.00    +0.002 C 
ATOM     12  CD1 ILE A   2      44.901  54.243 -18.089  0.00  0.00    +0.000 C 
ENDBRANCH   9  11
ENDBRANCH   6   9
ENDBRANCH   3   6
ENDBRANCH   1   2
BRANCH   1  13
ATOM     13  N   TYR A   1      43.276  46.679 -16.569  0.00  0.00    -0.238 NA
ATOM     14  H   TYR A   1      43.798  46.842 -15.684  0.00  0.00    +0.142 HD
ENDBRANCH   1  13
BRANCH   1  15
ATOM     15  CB  TYR A   1      41.542  48.397 -16.240  0.00  0.00    +0.053 C 
BRANCH  15  16
ATOM     16  CG  TYR A   1      40.703  49.492 -16.869  0.00  0.00    -0.020 A 
ATOM     17  CD2 TYR A   1      40.942  50.833 -16.575  0.00  0.00    -0.001 A 
ATOM     18  CE2 TYR A   1      40.189  51.850 -17.170  0.00  0.00    +0.036 A 
ATOM     19  CZ  TYR A   1      39.184  51.522 -18.064  0.00  0.00    +0.134 A 
ATOM     20  CE1 TYR A   1      38.924  50.192 -18.372  0.00  0.00    +0.036 A 
ATOM     21  CD1 TYR A   1      39.685  49.188 -17.774  0.00  0.00    -0.001 A 
BRANCH  19  22
ATOM     22  OH  TYR A   1      38.427  52.518 -18.646  0.00  0.00    -0.506 OA
ATOM     23  HH  TYR A   1      39.019  53.122 -19.161  0.00  0.00    +0.292 HD
ENDBRANCH  19  22
ENDBRANCH  15  16
ENDBRANCH   1  15
TORSDOF 9
REMARK  Name = ../refined-set-2016/1fzk/1fzk_pocket.pdb
REMARK  322 active torsions:
REMARK  status: ('A' for Active; 'I' for Inactive)
REMARK    1  A    between atoms: _1  and  _3
REMARK    2  A    between atoms: _3  and  _4
REMARK    3  A    between atoms: _3  and  _6
REMARK    4  A    between atoms: _6  and  _7
REMARK    5  A    between atoms: _10  and  _12
REMARK    6  A    between atoms: _12  and  _13
REMARK    7  A    between atoms: _12  and  _15
REMARK    8  A    between atoms: _15  and  _16
REMARK    9  A    between atoms: _16  and  _17
REMARK   10  A    between atoms: _17  and  _18
REMARK   11  A    between atoms: _27  and  _29
REMARK   12  A    between atoms: _29  and  _30
REMARK   13  A    between atoms: _29  and  _32
REMARK   14  A    between atoms: _32  and  _33
REMARK   15  A    between atoms: _38  and  _39
REMARK   16  A    between atoms: _41  and  _43
REMARK   17  A    between atoms: _43  and  _44
REMARK   18  A    between atoms: _43  and  _46
REMARK   19  A    between atoms: _46  and  _47
REMARK   20  A    between atoms: _53  and  _55
REMARK   21  A    between atoms: _55  and  _56
REMARK   22  A    between atoms: _55  and  _58
REMARK   23  A    between atoms: _61  and  _63
REMARK   24  A    between atoms: _63  and  _64
REMARK   25  A    between atoms: _63  and  _66
REMARK   26  A    between atoms: _66  and  _67
REMARK   27  A    between atoms: _70  and  _72
REMARK   28  A    between atoms: _72  and  _73
REMARK   29  A    between atoms: _72  and  _75
REMARK   30  A    between atoms: _75  and  _76
REMARK   31  A    between atoms: _81  and  _82
REMARK   32  A    between atoms: _84  and  _86
REMARK   33  A    between atoms: _86  and  _87
REMARK   34  A    between atoms: _86  and  _89
REMARK   35  A    between atoms: _89  and  _90
REMARK   36  A    between atoms: _90  and  _91
REMARK   37  A    between atoms: _93  and  _95
REMARK   38  A    between atoms: _95  and  _96
REMARK   39  A    between atoms: _95  and  _98
REMARK   40  A    between atoms: _98  and  _99
REMARK   41  A    between atoms: _99  and  _100
REMARK   42  A    between atoms: _103  and  _105
REMARK   43  A    between atoms: _105  and  _106
REMARK   44  A    between atoms: _105  and  _108
REMARK   45  A    between atoms: _111  and  _113
REMARK   46  A    between atoms: _113  and  _114
REMARK   47  A    between atoms: _116  and  _118
REMARK   48  A    between atoms: _118  and  _119
REMARK   49  A    between atoms: _118  and  _121
REMARK   50  A    between atoms: _124  and  _126
REMARK   51  A    between atoms: _126  and  _127
REMARK   52  A    between atoms: _126  and  _129
REMARK   53  A    between atoms: _129  and  _130
REMARK   54  A    between atoms: _136  and  _138
REMARK   55  A    between atoms: _138  and  _139
REMARK   56  A    between atoms: _138  and  _141
REMARK   57  A    between atoms: _144  and  _146
REMARK   58  A    between atoms: _146  and  _147
REMARK   59  A    between atoms: _146  and  _149
REMARK   60  A    between atoms: _149  and  _150
REMARK   61  A    between atoms: _155  and  _156
REMARK   62  A    between atoms: _158  and  _160
REMARK   63  A    between atoms: _160  and  _161
REMARK   64  A    between atoms: _160  and  _163
REMARK   65  A    between atoms: _163  and  _164
REMARK   66  A    between atoms: _164  and  _165
REMARK   67  A    between atoms: _167  and  _169
REMARK   68  A    between atoms: _169  and  _170
REMARK   69  A    between atoms: _169  and  _172
REMARK   70  A    between atoms: _172  and  _173
REMARK   71  A    between atoms: _173  and  _174
REMARK   72  A    between atoms: _177  and  _179
REMARK   73  A    between atoms: _179  and  _180
REMARK   74  A    between atoms: _179  and  _182
REMARK   75  A    between atoms: _182  and  _183
REMARK   76  A    between atoms: _183  and  _184
REMARK   77  A    between atoms: _187  and  _189
REMARK   78  A    between atoms: _189  and  _190
REMARK   79  A    between atoms: _189  and  _192
REMARK   80  A    between atoms: _192  and  _193
REMARK   81  A    between atoms: _198  and  _199
REMARK   82  A    between atoms: _201  and  _203
REMARK   83  A    between atoms: _203  and  _204
REMARK   84  A    between atoms: _203  and  _206
REMARK   85  A    between atoms: _206  and  _207
REMARK   86  A    between atoms: _207  and  _208
REMARK   87  A    between atoms: _208  and  _209
REMARK   88  A    between atoms: _218  and  _220
REMARK   89  A    between atoms: _220  and  _221
REMARK   90  A    between atoms: _220  and  _223
REMARK   91  A    between atoms: _223  and  _224
REMARK   92  A    between atoms: _224  and  _225
REMARK   93  A    between atoms: _228  and  _230
REMARK   94  A    between atoms: _230  and  _231
REMARK   95  A    between atoms: _230  and  _233
REMARK   96  A    between atoms: _233  and  _234
REMARK   97  A    between atoms: _234  and  _235
REMARK   98  A    between atoms: _240  and  _242
REMARK   99  A    between atoms: _242  and  _243
REMARK  100  A    between atoms: _242  and  _245
REMARK  101  A    between atoms: _245  and  _246
REMARK  102  A    between atoms: _246  and  _247
REMARK  103  A    between atoms: _247  and  _248
REMARK  104  A    between atoms: _248  and  _249
REMARK  105  A    between atoms: _253  and  _255
REMARK  106  A    between atoms: _255  and  _256
REMARK  107  A    between atoms: _259  and  _261
REMARK  108  A    between atoms: _261  and  _262
REMARK  109  A    between atoms: _264  and  _266
REMARK  110  A    between atoms: _266  and  _267
REMARK  111  A    between atoms: _266  and  _269
REMARK  112  A    between atoms: _269  and  _270
REMARK  113  A    between atoms: _275  and  _277
REMARK  114  A    between atoms: _277  and  _278
REMARK  115  A    between atoms: _277  and  _280
REMARK  116  A    between atoms: _280  and  _281
REMARK  117  A    between atoms: _281  and  _282
REMARK  118  A    between atoms: _285  and  _287
REMARK  119  A    between atoms: _287  and  _288
REMARK  120  A    between atoms: _287  and  _290
REMARK  121  A    between atoms: _290  and  _291
REMARK  122  A    between atoms: _291  and  _292
REMARK  123  A    between atoms: _297  and  _299
REMARK  124  A    between atoms: _299  and  _300
REMARK  125  A    between atoms: _299  and  _302
REMARK  126  A    between atoms: _302  and  _303
REMARK  127  A    between atoms: _305  and  _307
REMARK  128  A    between atoms: _307  and  _308
REMARK  129  A    between atoms: _307  and  _310
REMARK  130  A    between atoms: _310  and  _311
REMARK  131  A    between atoms: _317  and  _319
REMARK  132  A    between atoms: _319  and  _320
REMARK  133  A    between atoms: _319  and  _322
REMARK  134  A    between atoms: _325  and  _327
REMARK  135  A    between atoms: _327  and  _328
REMARK  136  A    between atoms: _327  and  _330
REMARK  137  A    between atoms: _330  and  _331
REMARK  138  A    between atoms: _334  and  _336
REMARK  139  A    between atoms: _336  and  _337
REMARK  140  A    between atoms: _336  and  _339
REMARK  141  A    between atoms: _339  and  _340
REMARK  142  A    between atoms: _343  and  _345
REMARK  143  A    between atoms: _345  and  _346
REMARK  144  A    between atoms: _345  and  _348
REMARK  145  A    between atoms: _348  and  _349
REMARK  146  A    between atoms: _352  and  _354
REMARK  147  A    between atoms: _354  and  _355
REMARK  148  A    between atoms: _354  and  _357
REMARK  149  A    between atoms: _357  and  _358
REMARK  150  A    between atoms: _361  and  _363
REMARK  151  A    between atoms: _363  and  _364
REMARK  152  A    between atoms: _363  and  _366
REMARK  153  A    between atoms: _366  and  _367
REMARK  154  A    between atoms: _372  and  _373
REMARK  155  A    between atoms: _375  and  _377
REMARK  156  A    between atoms: _377  and  _378
REMARK  157  A    between atoms: _377  and  _380
REMARK  158  A    between atoms: _380  and  _381
REMARK  159  A    between atoms: _386  and  _387
REMARK  160  A    between atoms: _389  and  _391
REMARK  161  A    between atoms: _391  and  _392
REMARK  162  A    between atoms: _391  and  _394
REMARK  163  A    between atoms: _394  and  _395
REMARK  164  A    between atoms: _398  and  _400
REMARK  165  A    between atoms: _400  and  _401
REMARK  166  A    between atoms: _400  and  _403
REMARK  167  A    between atoms: _403  and  _404
REMARK  168  A    between atoms: _404  and  _405
REMARK  169  A    between atoms: _410  and  _412
REMARK  170  A    between atoms: _412  and  _413
REMARK  171  A    between atoms: _412  and  _415
REMARK  172  A    between atoms: _418  and  _420
REMARK  173  A    between atoms: _420  and  _421
REMARK  174  A    between atoms: _420  and  _423
REMARK  175  A    between atoms: _423  and  _424
REMARK  176  A    between atoms: _427  and  _429
REMARK  177  A    between atoms: _429  and  _430
REMARK  178  A    between atoms: _429  and  _432
REMARK  179  A    between atoms: _432  and  _433
REMARK  180  A    between atoms: _435  and  _437
REMARK  181  A    between atoms: _437  and  _438
REMARK  182  A    between atoms: _440  and  _442
REMARK  183  A    between atoms: _442  and  _443
REMARK  184  A    between atoms: _442  and  _445
REMARK  185  A    between atoms: _445  and  _446
REMARK  186  A    between atoms: _446  and  _744
REMARK  187  A    between atoms: _447  and  _449
REMARK  188  A    between atoms: _449  and  _450
REMARK  189  A    between atoms: _449  and  _452
REMARK  190  A    between atoms: _452  and  _453
REMARK  191  A    between atoms: _458  and  _459
REMARK  192  A    between atoms: _461  and  _463
REMARK  193  A    between atoms: _463  and  _464
REMARK  194  A    between atoms: _463  and  _466
REMARK  195  A    between atoms: _466  and  _467
REMARK  196  A    between atoms: _467  and  _468
REMARK  197  A    between atoms: _473  and  _475
REMARK  198  A    between atoms: _475  and  _476
REMARK  199  A    between atoms: _475  and  _478
REMARK  200  A    between atoms: _478  and  _479
REMARK  201  A    between atoms: _479  and  _480
REMARK  202  A    between atoms: _485  and  _487
REMARK  203  A    between atoms: _487  and  _488
REMARK  204  A    between atoms: _487  and  _490
REMARK  205  A    between atoms: _490  and  _491
REMARK  206  A    between atoms: _496  and  _497
REMARK  207  A    between atoms: _499  and  _501
REMARK  208  A    between atoms: _501  and  _502
REMARK  209  A    between atoms: _505  and  _507
REMARK  210  A    between atoms: _507  and  _508
REMARK  211  A    between atoms: _507  and  _510
REMARK  212  A    between atoms: _510  and  _511
REMARK  213  A    between atoms: _516  and  _517
REMARK  214  A    between atoms: _519  and  _521
REMARK  215  A    between atoms: _521  and  _522
REMARK  216  A    between atoms: _521  and  _524
REMARK  217  A    between atoms: _524  and  _525
REMARK  218  A    between atoms: _530  and  _531
REMARK  219  A    between atoms: _533  and  _535
REMARK  220  A    between atoms: _535  and  _536
REMARK  221  A    between atoms: _535  and  _538
REMARK  222  A    between atoms: _538  and  _539
REMARK  223  A    between atoms: _542  and  _544
REMARK  224  A    between atoms: _544  and  _545
REMARK  225  A    between atoms: _544  and  _547
REMARK  226  A    between atoms: _547  and  _548
REMARK  227  A    between atoms: _558  and  _560
REMARK  228  A    between atoms: _560  and  _561
REMARK  229  A    between atoms: _564  and  _566
REMARK  230  A    between atoms: _566  and  _567
REMARK  231  A    between atoms: _570  and  _572
REMARK  232  A    between atoms: _572  and  _573
REMARK  233  A    between atoms: _572  and  _575
REMARK  234  A    between atoms: _575  and  _576
REMARK  235  A    between atoms: _579  and  _581
REMARK  236  A    between atoms: _581  and  _582
REMARK  237  A    between atoms: _581  and  _584
REMARK  238  A    between atoms: _584  and  _585
REMARK  239  A    between atoms: _588  and  _590
REMARK  240  A    between atoms: _590  and  _591
REMARK  241  A    between atoms: _590  and  _593
REMARK  242  A    between atoms: _593  and  _594
REMARK  243  A    between atoms: _597  and  _599
REMARK  244  A    between atoms: _599  and  _600
REMARK  245  A    between atoms: _599  and  _602
REMARK  246  A    between atoms: _602  and  _603
REMARK  247  A    between atoms: _603  and  _604
REMARK  248  A    between atoms: _604  and  _605
REMARK  249  A    between atoms: _605  and  _606
REMARK  250  A    between atoms: _610  and  _612
REMARK  251  A    between atoms: _612  and  _613
REMARK  252  A    between atoms: _612  and  _615
REMARK  253  A    between atoms: _615  and  _616
REMARK  254  A    between atoms: _621  and  _623
REMARK  255  A    between atoms: _623  and  _624
REMARK  256  A    between atoms: _623  and  _626
REMARK  257  A    between atoms: _626  and  _627
REMARK  258  A    between atoms: _627  and  _628
REMARK  259  A    between atoms: _628  and  _629
REMARK  260  A    between atoms: _629  and  _630
REMARK  261  A    between atoms: _634  and  _636
REMARK  262  A    between atoms: _636  and  _637
REMARK  263  A    between atoms: _636  and  _639
REMARK  264  A    between atoms: _639  and  _640
REMARK  265  A    between atoms: _650  and  _652
REMARK  266  A    between atoms: _652  and  _653
REMARK  267  A    between atoms: _656  and  _658
REMARK  268  A    between atoms: _658  and  _659
REMARK  269  A    between atoms: _661  and  _663
REMARK  270  A    between atoms: _663  and  _664
REMARK  271  A    between atoms: _667  and  _669
REMARK  272  A    between atoms: _669  and  _670
REMARK  273  A    between atoms: _673  and  _675
REMARK  274  A    between atoms: _675  and  _676
REMARK  275  A    between atoms: _675  and  _678
REMARK  276  A    between atoms: _678  and  _679
REMARK  277  A    between atoms: _684  and  _685
REMARK  278  A    between atoms: _687  and  _689
REMARK  279  A    between atoms: _689  and  _690
REMARK  280  A    between atoms: _689  and  _692
REMARK  281  A    between atoms: _692  and  _693
REMARK  282  A    between atoms: _698  and  _699
REMARK  283  A    between atoms: _701  and  _703
REMARK  284  A    between atoms: _703  and  _704
REMARK  285  A    between atoms: _703  and  _706
REMARK  286  A    between atoms: _706  and  _707
REMARK  287  A    between atoms: _712  and  _713
REMARK  288  A    between atoms: _715  and  _717
REMARK  289  A    between atoms: _717  and  _718
REMARK  290  A    between atoms: _717  and  _720
REMARK  291  A    between atoms: _720  and  _721
REMARK  292  A    between atoms: _724  and  _726
REMARK  293  A    between atoms: _726  and  _727
REMARK  294  A    between atoms: _729  and  _731
REMARK  295  A    between atoms: _731  and  _732
REMARK  296  A    between atoms: _731  and  _734
REMARK  297  A    between atoms: _734  and  _735
REMARK  298  A    between atoms: _738  and  _740
REMARK  299  A    between atoms: _740  and  _741
REMARK  300  A    between atoms: _740  and  _743
REMARK  301  A    between atoms: _743  and  _744
REMARK  302  A    between atoms: _745  and  _747
REMARK  303  A    between atoms: _747  and  _748
REMARK  304  A    between atoms: _747  and  _750
REMARK  305  A    between atoms: _753  and  _755
REMARK  306  A    between atoms: _755  and  _756
REMARK  307  A    between atoms: _755  and  _758
REMARK  308  A    between atoms: _758  and  _759
REMARK  309  A    between atoms: _759  and  _760
REMARK  310  A    between atoms: _763  and  _765
REMARK  311  A    between atoms: _765  and  _766
REMARK  312  A    between atoms: _765  and  _768
REMARK  313  A    between atoms: _768  and  _769
REMARK  314  A    between atoms: _779  and  _781
REMARK  315  A    between atoms: _781  and  _782
REMARK  316  A    between atoms: _781  and  _784
REMARK  317  A    between atoms: _784  and  _785
REMARK  318  A    between atoms: _788  and  _790
REMARK  319  A    between atoms: _790  and  _791
REMARK  320  A    between atoms: _790  and  _793
REMARK  321  A    between atoms: _793  and  _794
REMARK  322  A    between atoms: _799  and  _800
REMARK                            x       y       z     vdW  Elec       q    Type
REMARK                         _______ _______ _______ _____ _____    ______ ____
ROOT
ATOM      1  CG  TRP A   1      48.454  56.511 -17.101  0.00  0.00    -0.002 A 
ATOM      2  CD2 TRP A   1      48.307  56.321 -15.691  0.00  0.00    +0.013 A 
ATOM      3  CE3 TRP A   1      48.239  55.190 -14.864  0.00  0.00    +0.001 A 
ATOM      4  CZ3 TRP A   1      48.090  55.373 -13.493  0.00  0.00    +0.000 A 
ATOM      5  CH2 TRP A   1      48.008  56.666 -12.938  0.00  0.00    +0.001 A 
ATOM      6  CZ2 TRP A   1      48.071  57.790 -13.726  0.00  0.00    +0.017 A 
ATOM      7  CE2 TRP A   1      48.221  57.607 -15.103  0.00  0.00    +0.056 A 
ATOM      8  NE1 TRP A   1      48.313  58.529 -16.112  0.00  0.00    -0.352 N 
ATOM      9  HE1 TRP A   1      48.281  59.562 -15.993  0.00  0.00    +0.166 HD
ATOM     10  CD1 TRP A   1      48.454  57.866 -17.309  0.00  0.00    +0.068 A 
ENDROOT
BRANCH   1  11
ATOM     11  CB  TRP A   1      48.587  55.434 -18.139  0.00  0.00    +0.053 C 
BRANCH  11  12
ATOM     12  CA  TRP A   1      50.031  55.010 -18.457  0.00  0.00    +0.137 C 
BRANCH  12  13
ATOM     13  N   TRP A   1      50.853  56.177 -18.766  0.00  0.00    -0.239 NA
ATOM     14  H   TRP A   1      50.494  56.871 -19.453  0.00  0.00    +0.142 HD
ENDBRANCH  12  13
BRANCH  12  15
ATOM     15  C   TRP A   1      49.975  54.040 -19.633  0.00  0.00    +0.224 C 
ATOM     16  O   TRP A   1      50.171  54.431 -20.784  0.00  0.00    -0.287 OA
ENDBRANCH  12  15
ENDBRANCH  11  12
ENDBRANCH   1  11
TORSDOF 4
REMARK  Name = ../refined-set-2016/1fzk/1fzk_pocket.pdb
REMARK  322 active torsions:
REMARK  status: ('A' for Active; 'I' for Inactive)
REMARK    1  A    between atoms: _1  and  _3
REMARK    2  A    between atoms: _3  and  _4
REMARK    3  A    between atoms: _3  and  _6
REMARK    4  A    between atoms: _6  and  _7
REMARK    5  A    between atoms: _10  and  _12
REMARK    6  A    between atoms: _12  and  _13
REMARK    7  A    between atoms: _12  and  _15
REMARK    8  A    between atoms: _15  and  _16
REMARK    9  A    between atoms: _16  and  _17
REMARK   10  A    between atoms: _17  and  _18
REMARK   11  A    between atoms: _27  and  _29
REMARK   12  A    between atoms: _29  and  _30
REMARK   13  A    between atoms: _29  and  _32
REMARK   14  A    between atoms: _32  and  _33
REMARK   15  A    between atoms: _38  and  _39
REMARK   16  A    between atoms: _41  and  _43
REMARK   17  A    between atoms: _43  and  _44
REMARK   18  A    between atoms: _43  and  _46
REMARK   19  A    between atoms: _46  and  _47
REMARK   20  A    between atoms: _53  and  _55
REMARK   21  A    between atoms: _55  and  _56
REMARK   22  A    between atoms: _55  and  _58
REMARK   23  A    between atoms: _61  and  _63
REMARK   24  A    between atoms: _63  and  _64
REMARK   25  A    between atoms: _63  and  _66
REMARK   26  A    between atoms: _66  and  _67
REMARK   27  A    between atoms: _70  and  _72
REMARK   28  A    between atoms: _72  and  _73
REMARK   29  A    between atoms: _72  and  _75
REMARK   30  A    between atoms: _75  and  _76
REMARK   31  A    between atoms: _81  and  _82
REMARK   32  A    between atoms: _84  and  _86
REMARK   33  A    between atoms: _86  and  _87
REMARK   34  A    between atoms: _86  and  _89
REMARK   35  A    between atoms: _89  and  _90
REMARK   36  A    between atoms: _90  and  _91
REMARK   37  A    between atoms: _93  and  _95
REMARK   38  A    between atoms: _95  and  _96
REMARK   39  A    between atoms: _95  and  _98
REMARK   40  A    between atoms: _98  and  _99
REMARK   41  A    between atoms: _99  and  _100
REMARK   42  A    between atoms: _103  and  _105
REMARK   43  A    between atoms: _105  and  _106
REMARK   44  A    between atoms: _105  and  _108
REMARK   45  A    between atoms: _111  and  _113
REMARK   46  A    between atoms: _113  and  _114
REMARK   47  A    between atoms: _116  and  _118
REMARK   48  A    between atoms: _118  and  _119
REMARK   49  A    between atoms: _118  and  _121
REMARK   50  A    between atoms: _124  and  _126
REMARK   51  A    between atoms: _126  and  _127
REMARK   52  A    between atoms: _126  and  _129
REMARK   53  A    between atoms: _129  and  _130
REMARK   54  A    between atoms: _136  and  _138
REMARK   55  A    between atoms: _138  and  _139
REMARK   56  A    between atoms: _138  and  _141
REMARK   57  A    between atoms: _144  and  _146
REMARK   58  A    between atoms: _146  and  _147
REMARK   59  A    between atoms: _146  and  _149
REMARK   60  A    between atoms: _149  and  _150
REMARK   61  A    between atoms: _155  and  _156
REMARK   62  A    between atoms: _158  and  _160
REMARK   63  A    between atoms: _160  and  _161
REMARK   64  A    between atoms: _160  and  _163
REMARK   65  A    between atoms: _163  and  _164
REMARK   66  A    between atoms: _164  and  _165
REMARK   67  A    between atoms: _167  and  _169
REMARK   68  A    between atoms: _169  and  _170
REMARK   69  A    between atoms: _169  and  _172
REMARK   70  A    between atoms: _172  and  _173
REMARK   71  A    between atoms: _173  and  _174
REMARK   72  A    between atoms: _177  and  _179
REMARK   73  A    between atoms: _179  and  _180
REMARK   74  A    between atoms: _179  and  _182
REMARK   75  A    between atoms: _182  and  _183
REMARK   76  A    between atoms: _183  and  _184
REMARK   77  A    between atoms: _187  and  _189
REMARK   78  A    between atoms: _189  and  _190
REMARK   79  A    between atoms: _189  and  _192
REMARK   80  A    between atoms: _192  and  _193
REMARK   81  A    between atoms: _198  and  _199
REMARK   82  A    between atoms: _201  and  _203
REMARK   83  A    between atoms: _203  and  _204
REMARK   84  A    between atoms: _203  and  _206
REMARK   85  A    between atoms: _206  and  _207
REMARK   86  A    between atoms: _207  and  _208
REMARK   87  A    between atoms: _208  and  _209
REMARK   88  A    between atoms: _218  and  _220
REMARK   89  A    between atoms: _220  and  _221
REMARK   90  A    between atoms: _220  and  _223
REMARK   91  A    between atoms: _223  and  _224
REMARK   92  A    between atoms: _224  and  _225
REMARK   93  A    between atoms: _228  and  _230
REMARK   94  A    between atoms: _230  and  _231
REMARK   95  A    between atoms: _230  and  _233
REMARK   96  A    between atoms: _233  and  _234
REMARK   97  A    between atoms: _234  and  _235
REMARK   98  A    between atoms: _240  and  _242
REMARK   99  A    between atoms: _242  and  _243
REMARK  100  A    between atoms: _242  and  _245
REMARK  101  A    between atoms: _245  and  _246
REMARK  102  A    between atoms: _246  and  _247
REMARK  103  A    between atoms: _247  and  _248
REMARK  104  A    between atoms: _248  and  _249
REMARK  105  A    between atoms: _253  and  _255
REMARK  106  A    between atoms: _255  and  _256
REMARK  107  A    between atoms: _259  and  _261
REMARK  108  A    between atoms: _261  and  _262
REMARK  109  A    between atoms: _264  and  _266
REMARK  110  A    between atoms: _266  and  _267
REMARK  111  A    between atoms: _266  and  _269
REMARK  112  A    between atoms: _269  and  _270
REMARK  113  A    between atoms: _275  and  _277
REMARK  114  A    between atoms: _277  and  _278
REMARK  115  A    between atoms: _277  and  _280
REMARK  116  A    between atoms: _280  and  _281
REMARK  117  A    between atoms: _281  and  _282
REMARK  118  A    between atoms: _285  and  _287
REMARK  119  A    between atoms: _287  and  _288
REMARK  120  A    between atoms: _287  and  _290
REMARK  121  A    between atoms: _290  and  _291
REMARK  122  A    between atoms: _291  and  _292
REMARK  123  A    between atoms: _297  and  _299
REMARK  124  A    between atoms: _299  and  _300
REMARK  125  A    between atoms: _299  and  _302
REMARK  126  A    between atoms: _302  and  _303
REMARK  127  A    between atoms: _305  and  _307
REMARK  128  A    between atoms: _307  and  _308
REMARK  129  A    between atoms: _307  and  _310
REMARK  130  A    between atoms: _310  and  _311
REMARK  131  A    between atoms: _317  and  _319
REMARK  132  A    between atoms: _319  and  _320
REMARK  133  A    between atoms: _319  and  _322
REMARK  134  A    between atoms: _325  and  _327
REMARK  135  A    between atoms: _327  and  _328
REMARK  136  A    between atoms: _327  and  _330
REMARK  137  A    between atoms: _330  and  _331
REMARK  138  A    between atoms: _334  and  _336
REMARK  139  A    between atoms: _336  and  _337
REMARK  140  A    between atoms: _336  and  _339
REMARK  141  A    between atoms: _339  and  _340
REMARK  142  A    between atoms: _343  and  _345
REMARK  143  A    between atoms: _345  and  _346
REMARK  144  A    between atoms: _345  and  _348
REMARK  145  A    between atoms: _348  and  _349
REMARK  146  A    between atoms: _352  and  _354
REMARK  147  A    between atoms: _354  and  _355
REMARK  148  A    between atoms: _354  and  _357
REMARK  149  A    between atoms: _357  and  _358
REMARK  150  A    between atoms: _361  and  _363
REMARK  151  A    between atoms: _363  and  _364
REMARK  152  A    between atoms: _363  and  _366
REMARK  153  A    between atoms: _366  and  _367
REMARK  154  A    between atoms: _372  and  _373
REMARK  155  A    between atoms: _375  and  _377
REMARK  156  A    between atoms: _377  and  _378
REMARK  157  A    between atoms: _377  and  _380
REMARK  158  A    between atoms: _380  and  _381
REMARK  159  A    between atoms: _386  and  _387
REMARK  160  A    between atoms: _389  and  _391
REMARK  161  A    between atoms: _391  and  _392
REMARK  162  A    between atoms: _391  and  _394
REMARK  163  A    between atoms: _394  and  _395
REMARK  164  A    between atoms: _398  and  _400
REMARK  165  A    between atoms: _400  and  _401
REMARK  166  A    between atoms: _400  and  _403
REMARK  167  A    between atoms: _403  and  _404
REMARK  168  A    between atoms: _404  and  _405
REMARK  169  A    between atoms: _410  and  _412
REMARK  170  A    between atoms: _412  and  _413
REMARK  171  A    between atoms: _412  and  _415
REMARK  172  A    between atoms: _418  and  _420
REMARK  173  A    between atoms: _420  and  _421
REMARK  174  A    between atoms: _420  and  _423
REMARK  175  A    between atoms: _423  and  _424
REMARK  176  A    between atoms: _427  and  _429
REMARK  177  A    between atoms: _429  and  _430
REMARK  178  A    between atoms: _429  and  _432
REMARK  179  A    between atoms: _432  and  _433
REMARK  180  A    between atoms: _435  and  _437
REMARK  181  A    between atoms: _437  and  _438
REMARK  182  A    between atoms: _440  and  _442
REMARK  183  A    between atoms: _442  and  _443
REMARK  184  A    between atoms: _442  and  _445
REMARK  185  A    between atoms: _445  and  _446
REMARK  186  A    between atoms: _446  and  _744
REMARK  187  A    between atoms: _447  and  _449
REMARK  188  A    between atoms: _449  and  _450
REMARK  189  A    between atoms: _449  and  _452
REMARK  190  A    between atoms: _452  and  _453
REMARK  191  A    between atoms: _458  and  _459
REMARK  192  A    between atoms: _461  and  _463
REMARK  193  A    between atoms: _463  and  _464
REMARK  194  A    between atoms: _463  and  _466
REMARK  195  A    between atoms: _466  and  _467
REMARK  196  A    between atoms: _467  and  _468
REMARK  197  A    between atoms: _473  and  _475
REMARK  198  A    between atoms: _475  and  _476
REMARK  199  A    between atoms: _475  and  _478
REMARK  200  A    between atoms: _478  and  _479
REMARK  201  A    between atoms: _479  and  _480
REMARK  202  A    between atoms: _485  and  _487
REMARK  203  A    between atoms: _487  and  _488
REMARK  204  A    between atoms: _487  and  _490
REMARK  205  A    between atoms: _490  and  _491
REMARK  206  A    between atoms: _496  and  _497
REMARK  207  A    between atoms: _499  and  _501
REMARK  208  A    between atoms: _501  and  _502
REMARK  209  A    between atoms: _505  and  _507
REMARK  210  A    between atoms: _507  and  _508
REMARK  211  A    between atoms: _507  and  _510
REMARK  212  A    between atoms: _510  and  _511
REMARK  213  A    between atoms: _516  and  _517
REMARK  214  A    between atoms: _519  and  _521
REMARK  215  A    between atoms: _521  and  _522
REMARK  216  A    between atoms: _521  and  _524
REMARK  217  A    between atoms: _524  and  _525
REMARK  218  A    between atoms: _530  and  _531
REMARK  219  A    between atoms: _533  and  _535
REMARK  220  A    between atoms: _535  and  _536
REMARK  221  A    between atoms: _535  and  _538
REMARK  222  A    between atoms: _538  and  _539
REMARK  223  A    between atoms: _542  and  _544
REMARK  224  A    between atoms: _544  and  _545
REMARK  225  A    between atoms: _544  and  _547
REMARK  226  A    between atoms: _547  and  _548
REMARK  227  A    between atoms: _558  and  _560
REMARK  228  A    between atoms: _560  and  _561
REMARK  229  A    between atoms: _564  and  _566
REMARK  230  A    between atoms: _566  and  _567
REMARK  231  A    between atoms: _570  and  _572
REMARK  232  A    between atoms: _572  and  _573
REMARK  233  A    between atoms: _572  and  _575
REMARK  234  A    between atoms: _575  and  _576
REMARK  235  A    between atoms: _579  and  _581
REMARK  236  A    between atoms: _581  and  _582
REMARK  237  A    between atoms: _581  and  _584
REMARK  238  A    between atoms: _584  and  _585
REMARK  239  A    between atoms: _588  and  _590
REMARK  240  A    between atoms: _590  and  _591
REMARK  241  A    between atoms: _590  and  _593
REMARK  242  A    between atoms: _593  and  _594
REMARK  243  A    between atoms: _597  and  _599
REMARK  244  A    between atoms: _599  and  _600
REMARK  245  A    between atoms: _599  and  _602
REMARK  246  A    between atoms: _602  and  _603
REMARK  247  A    between atoms: _603  and  _604
REMARK  248  A    between atoms: _604  and  _605
REMARK  249  A    between atoms: _605  and  _606
REMARK  250  A    between atoms: _610  and  _612
REMARK  251  A    between atoms: _612  and  _613
REMARK  252  A    between atoms: _612  and  _615
REMARK  253  A    between atoms: _615  and  _616
REMARK  254  A    between atoms: _621  and  _623
REMARK  255  A    between atoms: _623  and  _624
REMARK  256  A    between atoms: _623  and  _626
REMARK  257  A    between atoms: _626  and  _627
REMARK  258  A    between atoms: _627  and  _628
REMARK  259  A    between atoms: _628  and  _629
REMARK  260  A    between atoms: _629  and  _630
REMARK  261  A    between atoms: _634  and  _636
REMARK  262  A    between atoms: _636  and  _637
REMARK  263  A    between atoms: _636  and  _639
REMARK  264  A    between atoms: _639  and  _640
REMARK  265  A    between atoms: _650  and  _652
REMARK  266  A    between atoms: _652  and  _653
REMARK  267  A    between atoms: _656  and  _658
REMARK  268  A    between atoms: _658  and  _659
REMARK  269  A    between atoms: _661  and  _663
REMARK  270  A    between atoms: _663  and  _664
REMARK  271  A    between atoms: _667  and  _669
REMARK  272  A    between atoms: _669  and  _670
REMARK  273  A    between atoms: _673  and  _675
REMARK  274  A    between atoms: _675  and  _676
REMARK  275  A    between atoms: _675  and  _678
REMARK  276  A    between atoms: _678  and  _679
REMARK  277  A    between atoms: _684  and  _685
REMARK  278  A    between atoms: _687  and  _689
REMARK  279  A    between atoms: _689  and  _690
REMARK  280  A    between atoms: _689  and  _692
REMARK  281  A    between atoms: _692  and  _693
REMARK  282  A    between atoms: _698  and  _699
REMARK  283  A    between atoms: _701  and  _703
REMARK  284  A    between atoms: _703  and  _704
REMARK  285  A    between atoms: _703  and  _706
REMARK  286  A    between atoms: _706  and  _707
REMARK  287  A    between atoms: _712  and  _713
REMARK  288  A    between atoms: _715  and  _717
REMARK  289  A    between atoms: _717  and  _718
REMARK  290  A    between atoms: _717  and  _720
REMARK  291  A    between atoms: _720  and  _721
REMARK  292  A    between atoms: _724  and  _726
REMARK  293  A    between atoms: _726  and  _727
REMARK  294  A    between atoms: _729  and  _731
REMARK  295  A    between atoms: _731  and  _732
REMARK  296  A    between atoms: _731  and  _734
REMARK  297  A    between atoms: _734  and  _735
REMARK  298  A    between atoms: _738  and  _740
REMARK  299  A    between atoms: _740  and  _741
REMARK  300  A    between atoms: _740  and  _743
REMARK  301  A    between atoms: _743  and  _744
REMARK  302  A    between atoms: _745  and  _747
REMARK  303  A    between atoms: _747  and  _748
REMARK  304  A    between atoms: _747  and  _750
REMARK  305  A    between atoms: _753  and  _755
REMARK  306  A    between atoms: _755  and  _756
REMARK  307  A    between atoms: _755  and  _758
REMARK  308  A    between atoms: _758  and  _759
REMARK  309  A    between atoms: _759  and  _760
REMARK  310  A    between atoms: _763  and  _765
REMARK  311  A    between atoms: _765  and  _766
REMARK  312  A    between atoms: _765  and  _768
REMARK  313  A    between atoms: _768  and  _769
REMARK  314  A    between atoms: _779  and  _781
REMARK  315  A    between atoms: _781  and  _782
REMARK  316  A    between atoms: _781  and  _784
REMARK  317  A    between atoms: _784  and  _785
REMARK  318  A    between atoms: _788  and  _790
REMARK  319  A    between atoms: _790  and  _791
REMARK  320  A    between atoms: _790  and  _793
REMARK  321  A    between atoms: _793  and  _794
REMARK  322  A    between atoms: _799  and  _800
REMARK                            x       y       z     vdW  Elec       q    Type
REMARK                         _______ _______ _______ _____ _____    ______ ____
ROOT
ATOM      1  CA  LYS A   6      44.358  57.223 -20.696  0.00  0.00    +0.149 C 
ENDROOT
BRANCH   1   2
ATOM      2  C   LYS A   6      44.348  58.645 -21.243  0.00  0.00    +0.241 C 
ATOM      3  O   LYS A   6      45.046  59.521 -20.734  0.00  0.00    -0.273 OA
ATOM      4  N   HIS A   7      43.548  58.867 -22.280  0.00  0.00    -0.297 N 
ATOM      5  H   HIS A   7      42.976  58.089 -22.666  0.00  0.00    +0.150 HD
BRANCH   4   6
ATOM      6  CA  HIS A   7      43.466  60.191 -22.881  0.00  0.00    +0.155 C 
BRANCH   6   7
ATOM      7  C   HIS A   7      42.941  61.220 -21.880  0.00  0.00    +0.241 C 
ATOM      8  N   LYS A   8      41.958  60.831 -21.067  0.00  0.00    -0.297 N 
ATOM      9  H   LYS A   8      41.571  59.869 -21.149  0.00  0.00    +0.150 HD
ATOM     10  O   HIS A   7      43.418  62.361 -21.852  0.00  0.00    -0.273 OA
BRANCH   8  11
ATOM     11  CA  LYS A   8      41.419  61.749 -20.058  0.00  0.00    +0.149 C 
BRANCH  11  12
ATOM     12  C   LYS A   8      42.501  62.102 -19.041  0.00  0.00    +0.241 C 
ATOM     13  N   TRP A   9      43.210  61.087 -18.552  0.00  0.00    -0.298 N 
ATOM     14  H   TRP A   9      43.024  60.120 -18.887  0.00  0.00    +0.150 HD
ATOM     15  O   LYS A   8      42.693  63.269 -18.696  0.00  0.00    -0.273 OA
BRANCH  13  16
ATOM     16  CA  TRP A   9      44.246  61.318 -17.549  0.00  0.00    +0.141 C 
BRANCH  16  17
ATOM     17  C   TRP A   9      45.441  62.123 -18.046  0.00  0.00    +0.227 C 
ATOM     18  O   TRP A   9      46.091  62.809 -17.262  0.00  0.00    -0.286 OA
ENDBRANCH  16  17
BRANCH  16  19
ATOM     19  CB  TRP A   9      44.708  59.978 -16.955  0.00  0.00    +0.056 C 
BRANCH  19  20
ATOM     20  CG  TRP A   9      43.656  59.329 -16.094  0.00  0.00    -0.002 A 
ATOM     21  CD2 TRP A   9      43.765  58.082 -15.395  0.00  0.00    +0.013 A 
ATOM     22  CE2 TRP A   9      42.535  57.860 -14.732  0.00  0.00    +0.056 A 
ATOM     23  CZ2 TRP A   9      42.294  56.724 -13.949  0.00  0.00    +0.017 A 
ATOM     24  CH2 TRP A   9      43.308  55.802 -13.838  0.00  0.00    +0.001 A 
ATOM     25  CZ3 TRP A   9      44.545  55.990 -14.483  0.00  0.00    +0.000 A 
ATOM     26  NE1 TRP A   9      41.717  58.926 -15.014  0.00  0.00    -0.352 N 
ATOM     27  HE1 TRP A   9      40.744  59.050 -14.668  0.00  0.00    +0.166 HD
ATOM     28  CE3 TRP A   9      44.784  57.128 -15.264  0.00  0.00    +0.001 A 
ATOM     29  CD1 TRP A   9      42.395  59.804 -15.830  0.00  0.00    +0.068 A 
ENDBRANCH  19  20
ENDBRANCH  16  19
ENDBRANCH  13  16
ENDBRANCH  11  12
BRANCH  11  30
ATOM     30  CB  LYS A   8      40.243  61.122 -19.299  0.00  0.00    +0.029 C 
BRANCH  30  31
ATOM     31  CG  LYS A   8      38.926  60.997 -20.055  0.00  0.00    +0.000 C 
BRANCH  31  32
ATOM     32  CD  LYS A   8      37.882  60.367 -19.135  0.00  0.00    -0.024 C 
BRANCH  32  33
ATOM     33  CE  LYS A   8      36.514  60.245 -19.788  0.00  0.00    -0.086 C 
BRANCH  33  34
ATOM     34  NZ  LYS A   8      35.512  59.768 -18.794  0.00  0.00    +0.380 N 
ATOM     35  HZ1 LYS A   8      35.456  60.446 -18.007  0.00  0.00    -0.089 HD
ATOM     36  HZ2 LYS A   8      35.801  58.837 -18.431  0.00  0.00    -0.089 HD
ATOM     37  HZ3 LYS A   8      34.582  59.689 -19.252  0.00  0.00    -0.089 HD
ENDBRANCH  33  34
ENDBRANCH  32  33
ENDBRANCH  31  32
ENDBRANCH  30  31
ENDBRANCH  11  30
ENDBRANCH   8  11
ENDBRANCH   6   7
BRANCH   6  38
ATOM     38  CB  HIS A   7      42.581  60.161 -24.125  0.00  0.00    +0.076 C 
BRANCH  38  39
ATOM     39  CG  HIS A   7      43.169  59.417 -25.283  0.00  0.00    +0.082 A 
ATOM     40  ND1 HIS A   7      44.534  59.314 -25.496  0.00  0.00    -0.227 NA
ATOM     41  CE1 HIS A   7      44.754  58.665 -26.620  0.00  0.00    +0.199 A 
ATOM     42  NE2 HIS A   7      43.586  58.337 -27.151  0.00  0.00    -0.221 NA
ATOM     43  CD2 HIS A   7      42.585  58.795 -26.332  0.00  0.00    +0.115 A 
ENDBRANCH  38  39
ENDBRANCH   6  38
ENDBRANCH   4   6
ENDBRANCH   1   2
BRANCH   1  46
ATOM     44  C   THR A   5      42.105  57.364 -19.763  0.00  0.00    +0.243 C 
ATOM     45  O   THR A   5      42.372  58.412 -19.154  0.00  0.00    -0.273 OA
ATOM     46  N   LYS A   6      42.991  56.730 -20.532  0.00  0.00    -0.297 N 
ATOM     47  H   LYS A   6      42.702  55.863 -21.028  0.00  0.00    +0.150 HD
BRANCH  44  48
ATOM     48  CA  THR A   5      40.711  56.743 -19.673  0.00  0.00    +0.176 C 
BRANCH  48  50
ATOM     49  C   ILE A   4      40.122  57.160 -22.000  0.00  0.00    +0.241 C 
ATOM     50  N   THR A   5      40.266  56.301 -20.994  0.00  0.00    -0.295 N 
ATOM     51  H   THR A   5      40.058  55.294 -21.151  0.00  0.00    +0.150 HD
ATOM     52  O   ILE A   4      40.352  58.368 -21.887  0.00  0.00    -0.273 OA
BRANCH  49  53
ATOM     53  CA  ILE A   4      39.671  56.563 -23.337  0.00  0.00    +0.149 C 
BRANCH  53  55
ATOM     54  C   LEU A   3      41.795  55.432 -23.712  0.00  0.00    +0.241 C 
ATOM     55  N   ILE A   4      40.477  55.360 -23.544  0.00  0.00    -0.297 N 
ATOM     56  H   ILE A   4      40.011  54.430 -23.560  0.00  0.00    +0.150 HD
ATOM     57  O   LEU A   3      42.409  56.501 -23.755  0.00  0.00    -0.273 OA
BRANCH  54  58
ATOM     58  CA  LEU A   3      42.537  54.103 -23.866  0.00  0.00    +0.149 C 
BRANCH  58  61
ATOM     59  C   ALA A   2      41.938  53.125 -21.729  0.00  0.00    +0.241 C 
ATOM     60  O   ALA A   2      42.593  53.980 -21.130  0.00  0.00    -0.273 OA
ATOM     61  N   LEU A   3      41.860  53.084 -23.063  0.00  0.00    -0.297 N 
ATOM     62  H   LEU A   3      41.319  52.329 -23.530  0.00  0.00    +0.150 HD
BRANCH  59  63
ATOM     63  CA  ALA A   2      41.193  52.047 -20.951  0.00  0.00    +0.149 C 
ATOM     64  CB  ALA A   2      42.171  50.962 -20.494  0.00  0.00    +0.031 C 
BRANCH  63  66
ATOM     65  C   ALA A   1      39.068  52.193 -22.118  0.00  0.00    +0.238 C 
ATOM     66  N   ALA A   2      40.122  51.465 -21.753  0.00  0.00    -0.297 N 
ATOM     67  H   ALA A   2      40.182  50.468 -22.044  0.00  0.00    +0.150 HD
ATOM     68  O   ALA A   1      38.939  53.380 -21.810  0.00  0.00    -0.274 OA
BRANCH  65  69
ATOM     69  CA  ALA A   1      38.014  51.483 -22.965  0.00  0.00    +0.145 C 
ATOM     70  CB  ALA A   1      37.196  50.531 -22.100  0.00  0.00    +0.028 C 
BRANCH  69  71
ATOM     71  N   ALA A   1      38.713  50.746 -24.013  0.00  0.00    -0.238 NA
ATOM     72  H   ALA A   1      38.740  49.707 -23.983  0.00  0.00    +0.142 HD
ENDBRANCH  69  71
ENDBRANCH  65  69
ENDBRANCH  63  66
ENDBRANCH  59  63
ENDBRANCH  58  61
BRANCH  58  73
ATOM     73  CB  LEU A   3      42.601  53.708 -25.350  0.00  0.00    +0.029 C 
BRANCH  73  74
ATOM     74  CG  LEU A   3      43.274  54.745 -26.263  0.00  0.00    +0.002 C 
ATOM     75  CD2 LEU A   3      44.698  55.038 -25.795  0.00  0.00    +0.000 C 
ATOM     76  CD1 LEU A   3      43.287  54.225 -27.699  0.00  0.00    +0.000 C 
ENDBRANCH  73  74
ENDBRANCH  58  73
ENDBRANCH  54  58
ENDBRANCH  53  55
BRANCH  53  77
ATOM     77  CB  ILE A   4      38.161  56.228 -23.274  0.00  0.00    +0.027 C 
ATOM     78  CG2 ILE A   4      37.352  57.477 -22.895  0.00  0.00    +0.002 C 
BRANCH  77  79
ATOM     79  CG1 ILE A   4      37.687  55.701 -24.634  0.00  0.00    +0.002 C 
ATOM     80  CD1 ILE A   4      36.295  55.102 -24.610  0.00  0.00    +0.000 C 
ENDBRANCH  77  79
ENDBRANCH  53  77
ENDBRANCH  49  53
ENDBRANCH  48  50
BRANCH  48  81
ATOM     81  CB  THR A   5      40.743  55.564 -18.665  0.00  0.00    +0.137 C 
ATOM     82  CG2 THR A   5      41.322  56.012 -17.327  0.00  0.00    +0.034 C 
BRANCH  81  83
ATOM     83  OG1 THR A   5      39.414  55.077 -18.461  0.00  0.00    -0.382 OA
ATOM     84  HG1 THR A   5      38.849  55.805 -18.101  0.00  0.00    +0.210 HD
ENDBRANCH  81  83
ENDBRANCH  48  81
ENDBRANCH  44  48
ENDBRANCH   1  46
BRANCH   1  85
ATOM     85  CB  LYS A   6      45.151  56.314 -21.652  0.00  0.00    +0.029 C 
BRANCH  85  86
ATOM     86  CG  LYS A   6      46.593  56.767 -21.938  0.00  0.00    +0.000 C 
BRANCH  86  87
ATOM     87  CD  LYS A   6      47.360  55.684 -22.730  0.00  0.00    -0.024 C 
BRANCH  87  88
ATOM     88  CE  LYS A   6      48.808  56.063 -23.013  0.00  0.00    -0.086 C 
BRANCH  88  89
ATOM     89  NZ  LYS A   6      48.936  57.212 -23.959  0.00  0.00    +0.380 N 
ATOM     90  HZ1 LYS A   6      48.463  58.046 -23.556  0.00  0.00    -0.089 HD
ATOM     91  HZ2 LYS A   6      49.943  57.423 -24.112  0.00  0.00    -0.089 HD
ATOM     92  HZ3 LYS A   6      48.491  56.964 -24.866  0.00  0.00    -0.089 HD
ENDBRANCH  88  89
ENDBRANCH  87  88
ENDBRANCH  86  87
ENDBRANCH  85  86
ENDBRANCH   1  85
TORSDOF 38
REMARK  Name = ../refined-set-2016/1fzk/1fzk_pocket.pdb
REMARK  322 active torsions:
REMARK  status: ('A' for Active; 'I' for Inactive)
REMARK    1  A    between atoms: _1  and  _3
REMARK    2  A    between atoms: _3  and  _4
REMARK    3  A    between atoms: _3  and  _6
REMARK    4  A    between atoms: _6  and  _7
REMARK    5  A    between atoms: _10  and  _12
REMARK    6  A    between atoms: _12  and  _13
REMARK    7  A    between atoms: _12  and  _15
REMARK    8  A    between atoms: _15  and  _16
REMARK    9  A    between atoms: _16  and  _17
REMARK   10  A    between atoms: _17  and  _18
REMARK   11  A    between atoms: _27  and  _29
REMARK   12  A    between atoms: _29  and  _30
REMARK   13  A    between atoms: _29  and  _32
REMARK   14  A    between atoms: _32  and  _33
REMARK   15  A    between atoms: _38  and  _39
REMARK   16  A    between atoms: _41  and  _43
REMARK   17  A    between atoms: _43  and  _44
REMARK   18  A    between atoms: _43  and  _46
REMARK   19  A    between atoms: _46  and  _47
REMARK   20  A    between atoms: _53  and  _55
REMARK   21  A    between atoms: _55  and  _56
REMARK   22  A    between atoms: _55  and  _58
REMARK   23  A    between atoms: _61  and  _63
REMARK   24  A    between atoms: _63  and  _64
REMARK   25  A    between atoms: _63  and  _66
REMARK   26  A    between atoms: _66  and  _67
REMARK   27  A    between atoms: _70  and  _72
REMARK   28  A    between atoms: _72  and  _73
REMARK   29  A    between atoms: _72  and  _75
REMARK   30  A    between atoms: _75  and  _76
REMARK   31  A    between atoms: _81  and  _82
REMARK   32  A    between atoms: _84  and  _86
REMARK   33  A    between atoms: _86  and  _87
REMARK   34  A    between atoms: _86  and  _89
REMARK   35  A    between atoms: _89  and  _90
REMARK   36  A    between atoms: _90  and  _91
REMARK   37  A    between atoms: _93  and  _95
REMARK   38  A    between atoms: _95  and  _96
REMARK   39  A    between atoms: _95  and  _98
REMARK   40  A    between atoms: _98  and  _99
REMARK   41  A    between atoms: _99  and  _100
REMARK   42  A    between atoms: _103  and  _105
REMARK   43  A    between atoms: _105  and  _106
REMARK   44  A    between atoms: _105  and  _108
REMARK   45  A    between atoms: _111  and  _113
REMARK   46  A    between atoms: _113  and  _114
REMARK   47  A    between atoms: _116  and  _118
REMARK   48  A    between atoms: _118  and  _119
REMARK   49  A    between atoms: _118  and  _121
REMARK   50  A    between atoms: _124  and  _126
REMARK   51  A    between atoms: _126  and  _127
REMARK   52  A    between atoms: _126  and  _129
REMARK   53  A    between atoms: _129  and  _130
REMARK   54  A    between atoms: _136  and  _138
REMARK   55  A    between atoms: _138  and  _139
REMARK   56  A    between atoms: _138  and  _141
REMARK   57  A    between atoms: _144  and  _146
REMARK   58  A    between atoms: _146  and  _147
REMARK   59  A    between atoms: _146  and  _149
REMARK   60  A    between atoms: _149  and  _150
REMARK   61  A    between atoms: _155  and  _156
REMARK   62  A    between atoms: _158  and  _160
REMARK   63  A    between atoms: _160  and  _161
REMARK   64  A    between atoms: _160  and  _163
REMARK   65  A    between atoms: _163  and  _164
REMARK   66  A    between atoms: _164  and  _165
REMARK   67  A    between atoms: _167  and  _169
REMARK   68  A    between atoms: _169  and  _170
REMARK   69  A    between atoms: _169  and  _172
REMARK   70  A    between atoms: _172  and  _173
REMARK   71  A    between atoms: _173  and  _174
REMARK   72  A    between atoms: _177  and  _179
REMARK   73  A    between atoms: _179  and  _180
REMARK   74  A    between atoms: _179  and  _182
REMARK   75  A    between atoms: _182  and  _183
REMARK   76  A    between atoms: _183  and  _184
REMARK   77  A    between atoms: _187  and  _189
REMARK   78  A    between atoms: _189  and  _190
REMARK   79  A    between atoms: _189  and  _192
REMARK   80  A    between atoms: _192  and  _193
REMARK   81  A    between atoms: _198  and  _199
REMARK   82  A    between atoms: _201  and  _203
REMARK   83  A    between atoms: _203  and  _204
REMARK   84  A    between atoms: _203  and  _206
REMARK   85  A    between atoms: _206  and  _207
REMARK   86  A    between atoms: _207  and  _208
REMARK   87  A    between atoms: _208  and  _209
REMARK   88  A    between atoms: _218  and  _220
REMARK   89  A    between atoms: _220  and  _221
REMARK   90  A    between atoms: _220  and  _223
REMARK   91  A    between atoms: _223  and  _224
REMARK   92  A    between atoms: _224  and  _225
REMARK   93  A    between atoms: _228  and  _230
REMARK   94  A    between atoms: _230  and  _231
REMARK   95  A    between atoms: _230  and  _233
REMARK   96  A    between atoms: _233  and  _234
REMARK   97  A    between atoms: _234  and  _235
REMARK   98  A    between atoms: _240  and  _242
REMARK   99  A    between atoms: _242  and  _243
REMARK  100  A    between atoms: _242  and  _245
REMARK  101  A    between atoms: _245  and  _246
REMARK  102  A    between atoms: _246  and  _247
REMARK  103  A    between atoms: _247  and  _248
REMARK  104  A    between atoms: _248  and  _249
REMARK  105  A    between atoms: _253  and  _255
REMARK  106  A    between atoms: _255  and  _256
REMARK  107  A    between atoms: _259  and  _261
REMARK  108  A    between atoms: _261  and  _262
REMARK  109  A    between atoms: _264  and  _266
REMARK  110  A    between atoms: _266  and  _267
REMARK  111  A    between atoms: _266  and  _269
REMARK  112  A    between atoms: _269  and  _270
REMARK  113  A    between atoms: _275  and  _277
REMARK  114  A    between atoms: _277  and  _278
REMARK  115  A    between atoms: _277  and  _280
REMARK  116  A    between atoms: _280  and  _281
REMARK  117  A    between atoms: _281  and  _282
REMARK  118  A    between atoms: _285  and  _287
REMARK  119  A    between atoms: _287  and  _288
REMARK  120  A    between atoms: _287  and  _290
REMARK  121  A    between atoms: _290  and  _291
REMARK  122  A    between atoms: _291  and  _292
REMARK  123  A    between atoms: _297  and  _299
REMARK  124  A    between atoms: _299  and  _300
REMARK  125  A    between atoms: _299  and  _302
REMARK  126  A    between atoms: _302  and  _303
REMARK  127  A    between atoms: _305  and  _307
REMARK  128  A    between atoms: _307  and  _308
REMARK  129  A    between atoms: _307  and  _310
REMARK  130  A    between atoms: _310  and  _311
REMARK  131  A    between atoms: _317  and  _319
REMARK  132  A    between atoms: _319  and  _320
REMARK  133  A    between atoms: _319  and  _322
REMARK  134  A    between atoms: _325  and  _327
REMARK  135  A    between atoms: _327  and  _328
REMARK  136  A    between atoms: _327  and  _330
REMARK  137  A    between atoms: _330  and  _331
REMARK  138  A    between atoms: _334  and  _336
REMARK  139  A    between atoms: _336  and  _337
REMARK  140  A    between atoms: _336  and  _339
REMARK  141  A    between atoms: _339  and  _340
REMARK  142  A    between atoms: _343  and  _345
REMARK  143  A    between atoms: _345  and  _346
REMARK  144  A    between atoms: _345  and  _348
REMARK  145  A    between atoms: _348  and  _349
REMARK  146  A    between atoms: _352  and  _354
REMARK  147  A    between atoms: _354  and  _355
REMARK  148  A    between atoms: _354  and  _357
REMARK  149  A    between atoms: _357  and  _358
REMARK  150  A    between atoms: _361  and  _363
REMARK  151  A    between atoms: _363  and  _364
REMARK  152  A    between atoms: _363  and  _366
REMARK  153  A    between atoms: _366  and  _367
REMARK  154  A    between atoms: _372  and  _373
REMARK  155  A    between atoms: _375  and  _377
REMARK  156  A    between atoms: _377  and  _378
REMARK  157  A    between atoms: _377  and  _380
REMARK  158  A    between atoms: _380  and  _381
REMARK  159  A    between atoms: _386  and  _387
REMARK  160  A    between atoms: _389  and  _391
REMARK  161  A    between atoms: _391  and  _392
REMARK  162  A    between atoms: _391  and  _394
REMARK  163  A    between atoms: _394  and  _395
REMARK  164  A    between atoms: _398  and  _400
REMARK  165  A    between atoms: _400  and  _401
REMARK  166  A    between atoms: _400  and  _403
REMARK  167  A    between atoms: _403  and  _404
REMARK  168  A    between atoms: _404  and  _405
REMARK  169  A    between atoms: _410  and  _412
REMARK  170  A    between atoms: _412  and  _413
REMARK  171  A    between atoms: _412  and  _415
REMARK  172  A    between atoms: _418  and  _420
REMARK  173  A    between atoms: _420  and  _421
REMARK  174  A    between atoms: _420  and  _423
REMARK  175  A    between atoms: _423  and  _424
REMARK  176  A    between atoms: _427  and  _429
REMARK  177  A    between atoms: _429  and  _430
REMARK  178  A    between atoms: _429  and  _432
REMARK  179  A    between atoms: _432  and  _433
REMARK  180  A    between atoms: _435  and  _437
REMARK  181  A    between atoms: _437  and  _438
REMARK  182  A    between atoms: _440  and  _442
REMARK  183  A    between atoms: _442  and  _443
REMARK  184  A    between atoms: _442  and  _445
REMARK  185  A    between atoms: _445  and  _446
REMARK  186  A    between atoms: _446  and  _744
REMARK  187  A    between atoms: _447  and  _449
REMARK  188  A    between atoms: _449  and  _450
REMARK  189  A    between atoms: _449  and  _452
REMARK  190  A    between atoms: _452  and  _453
REMARK  191  A    between atoms: _458  and  _459
REMARK  192  A    between atoms: _461  and  _463
REMARK  193  A    between atoms: _463  and  _464
REMARK  194  A    between atoms: _463  and  _466
REMARK  195  A    between atoms: _466  and  _467
REMARK  196  A    between atoms: _467  and  _468
REMARK  197  A    between atoms: _473  and  _475
REMARK  198  A    between atoms: _475  and  _476
REMARK  199  A    between atoms: _475  and  _478
REMARK  200  A    between atoms: _478  and  _479
REMARK  201  A    between atoms: _479  and  _480
REMARK  202  A    between atoms: _485  and  _487
REMARK  203  A    between atoms: _487  and  _488
REMARK  204  A    between atoms: _487  and  _490
REMARK  205  A    between atoms: _490  and  _491
REMARK  206  A    between atoms: _496  and  _497
REMARK  207  A    between atoms: _499  and  _501
REMARK  208  A    between atoms: _501  and  _502
REMARK  209  A    between atoms: _505  and  _507
REMARK  210  A    between atoms: _507  and  _508
REMARK  211  A    between atoms: _507  and  _510
REMARK  212  A    between atoms: _510  and  _511
REMARK  213  A    between atoms: _516  and  _517
REMARK  214  A    between atoms: _519  and  _521
REMARK  215  A    between atoms: _521  and  _522
REMARK  216  A    between atoms: _521  and  _524
REMARK  217  A    between atoms: _524  and  _525
REMARK  218  A    between atoms: _530  and  _531
REMARK  219  A    between atoms: _533  and  _535
REMARK  220  A    between atoms: _535  and  _536
REMARK  221  A    between atoms: _535  and  _538
REMARK  222  A    between atoms: _538  and  _539
REMARK  223  A    between atoms: _542  and  _544
REMARK  224  A    between atoms: _544  and  _545
REMARK  225  A    between atoms: _544  and  _547
REMARK  226  A    between atoms: _547  and  _548
REMARK  227  A    between atoms: _558  and  _560
REMARK  228  A    between atoms: _560  and  _561
REMARK  229  A    between atoms: _564  and  _566
REMARK  230  A    between atoms: _566  and  _567
REMARK  231  A    between atoms: _570  and  _572
REMARK  232  A    between atoms: _572  and  _573
REMARK  233  A    between atoms: _572  and  _575
REMARK  234  A    between atoms: _575  and  _576
REMARK  235  A    between atoms: _579  and  _581
REMARK  236  A    between atoms: _581  and  _582
REMARK  237  A    between atoms: _581  and  _584
REMARK  238  A    between atoms: _584  and  _585
REMARK  239  A    between atoms: _588  and  _590
REMARK  240  A    between atoms: _590  and  _591
REMARK  241  A    between atoms: _590  and  _593
REMARK  242  A    between atoms: _593  and  _594
REMARK  243  A    between atoms: _597  and  _599
REMARK  244  A    between atoms: _599  and  _600
REMARK  245  A    between atoms: _599  and  _602
REMARK  246  A    between atoms: _602  and  _603
REMARK  247  A    between atoms: _603  and  _604
REMARK  248  A    between atoms: _604  and  _605
REMARK  249  A    between atoms: _605  and  _606
REMARK  250  A    between atoms: _610  and  _612
REMARK  251  A    between atoms: _612  and  _613
REMARK  252  A    between atoms: _612  and  _615
REMARK  253  A    between atoms: _615  and  _616
REMARK  254  A    between atoms: _621  and  _623
REMARK  255  A    between atoms: _623  and  _624
REMARK  256  A    between atoms: _623  and  _626
REMARK  257  A    between atoms: _626  and  _627
REMARK  258  A    between atoms: _627  and  _628
REMARK  259  A    between atoms: _628  and  _629
REMARK  260  A    between atoms: _629  and  _630
REMARK  261  A    between atoms: _634  and  _636
REMARK  262  A    between atoms: _636  and  _637
REMARK  263  A    between atoms: _636  and  _639
REMARK  264  A    between atoms: _639  and  _640
REMARK  265  A    between atoms: _650  and  _652
REMARK  266  A    between atoms: _652  and  _653
REMARK  267  A    between atoms: _656  and  _658
REMARK  268  A    between atoms: _658  and  _659
REMARK  269  A    between atoms: _661  and  _663
REMARK  270  A    between atoms: _663  and  _664
REMARK  271  A    between atoms: _667  and  _669
REMARK  272  A    between atoms: _669  and  _670
REMARK  273  A    between atoms: _673  and  _675
REMARK  274  A    between atoms: _675  and  _676
REMARK  275  A    between atoms: _675  and  _678
REMARK  276  A    between atoms: _678  and  _679
REMARK  277  A    between atoms: _684  and  _685
REMARK  278  A    between atoms: _687  and  _689
REMARK  279  A    between atoms: _689  and  _690
REMARK  280  A    between atoms: _689  and  _692
REMARK  281  A    between atoms: _692  and  _693
REMARK  282  A    between atoms: _698  and  _699
REMARK  283  A    between atoms: _701  and  _703
REMARK  284  A    between atoms: _703  and  _704
REMARK  285  A    between atoms: _703  and  _706
REMARK  286  A    between atoms: _706  and  _707
REMARK  287  A    between atoms: _712  and  _713
REMARK  288  A    between atoms: _715  and  _717
REMARK  289  A    between atoms: _717  and  _718
REMARK  290  A    between atoms: _717  and  _720
REMARK  291  A    between atoms: _720  and  _721
REMARK  292  A    between atoms: _724  and  _726
REMARK  293  A    between atoms: _726  and  _727
REMARK  294  A    between atoms: _729  and  _731
REMARK  295  A    between atoms: _731  and  _732
REMARK  296  A    between atoms: _731  and  _734
REMARK  297  A    between atoms: _734  and  _735
REMARK  298  A    between atoms: _738  and  _740
REMARK  299  A    between atoms: _740  and  _741
REMARK  300  A    between atoms: _740  and  _743
REMARK  301  A    between atoms: _743  and  _744
REMARK  302  A    between atoms: _745  and  _747
REMARK  303  A    between atoms: _747  and  _748
REMARK  304  A    between atoms: _747  and  _750
REMARK  305  A    between atoms: _753  and  _755
REMARK  306  A    between atoms: _755  and  _756
REMARK  307  A    between atoms: _755  and  _758
REMARK  308  A    between atoms: _758  and  _759
REMARK  309  A    between atoms: _759  and  _760
REMARK  310  A    between atoms: _763  and  _765
REMARK  311  A    between atoms: _765  and  _766
REMARK  312  A    between atoms: _765  and  _768
REMARK  313  A    between atoms: _768  and  _769
REMARK  314  A    between atoms: _779  and  _781
REMARK  315  A    between atoms: _781  and  _782
REMARK  316  A    between atoms: _781  and  _784
REMARK  317  A    between atoms: _784  and  _785
REMARK  318  A    between atoms: _788  and  _790
REMARK  319  A    between atoms: _790  and  _791
REMARK  320  A    between atoms: _790  and  _793
REMARK  321  A    between atoms: _793  and  _794
REMARK  322  A    between atoms: _799  and  _800
REMARK                            x       y       z     vdW  Elec       q    Type
REMARK                         _______ _______ _______ _____ _____    ______ ____
ROOT
ATOM      1  C   GLY A   2      47.863  64.591 -14.293  0.00  0.00    +0.243 C 
ATOM      2  O   GLY A   2      48.570  64.804 -13.305  0.00  0.00    -0.273 OA
ATOM      3  N   ALA A   3      47.088  63.520 -14.401  0.00  0.00    -0.297 N 
ATOM      4  H   ALA A   3      46.541  63.377 -15.274  0.00  0.00    +0.150 HD
ENDROOT
BRANCH   3   5
ATOM      5  CA  ALA A   3      46.982  62.537 -13.327  0.00  0.00    +0.149 C 
ATOM      6  CB  ALA A   3      45.992  61.445 -13.726  0.00  0.00    +0.031 C 
BRANCH   5   7
ATOM      7  C   ALA A   3      48.305  61.907 -12.886  0.00  0.00    +0.241 C 
ATOM      8  O   ALA A   3      48.533  61.720 -11.687  0.00  0.00    -0.273 OA
ATOM      9  N   ALA A   4      49.173  61.574 -13.838  0.00  0.00    -0.298 N 
ATOM     10  H   ALA A   4      48.941  61.756 -14.835  0.00  0.00    +0.150 HD
BRANCH   9  11
ATOM     11  CA  ALA A   4      50.450  60.954 -13.490  0.00  0.00    +0.137 C 
ATOM     12  CB  ALA A   4      51.177  60.479 -14.754  0.00  0.00    +0.030 C 
BRANCH  11  13
ATOM     13  C   ALA A   4      51.351  61.882 -12.674  0.00  0.00    +0.227 C 
ATOM     14  O   ALA A   4      52.044  61.431 -11.759  0.00  0.00    -0.286 OA
ENDBRANCH  11  13
ENDBRANCH   9  11
ENDBRANCH   5   7
ENDBRANCH   3   5
BRANCH   1  15
ATOM     15  CA  GLY A   2      47.860  65.544 -15.477  0.00  0.00    +0.176 C 
BRANCH  15  18
ATOM     16  C   ALA A   1      45.527  66.167 -15.680  0.00  0.00    +0.238 C 
ATOM     17  O   ALA A   1      45.539  66.706 -14.571  0.00  0.00    -0.274 OA
ATOM     18  N   GLY A   2      46.597  65.575 -16.203  0.00  0.00    -0.296 N 
ATOM     19  H   GLY A   2      46.532  65.129 -17.140  0.00  0.00    +0.150 HD
BRANCH  16  20
ATOM     20  CA  ALA A   1      44.241  66.153 -16.511  0.00  0.00    +0.145 C 
ATOM     21  CB  ALA A   1      43.184  65.281 -15.823  0.00  0.00    +0.028 C 
BRANCH  20  22
ATOM     22  N   ALA A   1      44.426  65.712 -17.893  0.00  0.00    -0.238 NA
ATOM     23  H   ALA A   1      44.383  64.697 -18.114  0.00  0.00    +0.142 HD
ENDBRANCH  20  22
ENDBRANCH  16  20
ENDBRANCH  15  18
ENDBRANCH   1  15
TORSDOF 8
REMARK  Name = ../refined-set-2016/1fzk/1fzk_pocket.pdb
REMARK  322 active torsions:
REMARK  status: ('A' for Active; 'I' for Inactive)
REMARK    1  A    between atoms: _1  and  _3
REMARK    2  A    between atoms: _3  and  _4
REMARK    3  A    between atoms: _3  and  _6
REMARK    4  A    between atoms: _6  and  _7
REMARK    5  A    between atoms: _10  and  _12
REMARK    6  A    between atoms: _12  and  _13
REMARK    7  A    between atoms: _12  and  _15
REMARK    8  A    between atoms: _15  and  _16
REMARK    9  A    between atoms: _16  and  _17
REMARK   10  A    between atoms: _17  and  _18
REMARK   11  A    between atoms: _27  and  _29
REMARK   12  A    between atoms: _29  and  _30
REMARK   13  A    between atoms: _29  and  _32
REMARK   14  A    between atoms: _32  and  _33
REMARK   15  A    between atoms: _38  and  _39
REMARK   16  A    between atoms: _41  and  _43
REMARK   17  A    between atoms: _43  and  _44
REMARK   18  A    between atoms: _43  and  _46
REMARK   19  A    between atoms: _46  and  _47
REMARK   20  A    between atoms: _53  and  _55
REMARK   21  A    between atoms: _55  and  _56
REMARK   22  A    between atoms: _55  and  _58
REMARK   23  A    between atoms: _61  and  _63
REMARK   24  A    between atoms: _63  and  _64
REMARK   25  A    between atoms: _63  and  _66
REMARK   26  A    between atoms: _66  and  _67
REMARK   27  A    between atoms: _70  and  _72
REMARK   28  A    between atoms: _72  and  _73
REMARK   29  A    between atoms: _72  and  _75
REMARK   30  A    between atoms: _75  and  _76
REMARK   31  A    between atoms: _81  and  _82
REMARK   32  A    between atoms: _84  and  _86
REMARK   33  A    between atoms: _86  and  _87
REMARK   34  A    between atoms: _86  and  _89
REMARK   35  A    between atoms: _89  and  _90
REMARK   36  A    between atoms: _90  and  _91
REMARK   37  A    between atoms: _93  and  _95
REMARK   38  A    between atoms: _95  and  _96
REMARK   39  A    between atoms: _95  and  _98
REMARK   40  A    between atoms: _98  and  _99
REMARK   41  A    between atoms: _99  and  _100
REMARK   42  A    between atoms: _103  and  _105
REMARK   43  A    between atoms: _105  and  _106
REMARK   44  A    between atoms: _105  and  _108
REMARK   45  A    between atoms: _111  and  _113
REMARK   46  A    between atoms: _113  and  _114
REMARK   47  A    between atoms: _116  and  _118
REMARK   48  A    between atoms: _118  and  _119
REMARK   49  A    between atoms: _118  and  _121
REMARK   50  A    between atoms: _124  and  _126
REMARK   51  A    between atoms: _126  and  _127
REMARK   52  A    between atoms: _126  and  _129
REMARK   53  A    between atoms: _129  and  _130
REMARK   54  A    between atoms: _136  and  _138
REMARK   55  A    between atoms: _138  and  _139
REMARK   56  A    between atoms: _138  and  _141
REMARK   57  A    between atoms: _144  and  _146
REMARK   58  A    between atoms: _146  and  _147
REMARK   59  A    between atoms: _146  and  _149
REMARK   60  A    between atoms: _149  and  _150
REMARK   61  A    between atoms: _155  and  _156
REMARK   62  A    between atoms: _158  and  _160
REMARK   63  A    between atoms: _160  and  _161
REMARK   64  A    between atoms: _160  and  _163
REMARK   65  A    between atoms: _163  and  _164
REMARK   66  A    between atoms: _164  and  _165
REMARK   67  A    between atoms: _167  and  _169
REMARK   68  A    between atoms: _169  and  _170
REMARK   69  A    between atoms: _169  and  _172
REMARK   70  A    between atoms: _172  and  _173
REMARK   71  A    between atoms: _173  and  _174
REMARK   72  A    between atoms: _177  and  _179
REMARK   73  A    between atoms: _179  and  _180
REMARK   74  A    between atoms: _179  and  _182
REMARK   75  A    between atoms: _182  and  _183
REMARK   76  A    between atoms: _183  and  _184
REMARK   77  A    between atoms: _187  and  _189
REMARK   78  A    between atoms: _189  and  _190
REMARK   79  A    between atoms: _189  and  _192
REMARK   80  A    between atoms: _192  and  _193
REMARK   81  A    between atoms: _198  and  _199
REMARK   82  A    between atoms: _201  and  _203
REMARK   83  A    between atoms: _203  and  _204
REMARK   84  A    between atoms: _203  and  _206
REMARK   85  A    between atoms: _206  and  _207
REMARK   86  A    between atoms: _207  and  _208
REMARK   87  A    between atoms: _208  and  _209
REMARK   88  A    between atoms: _218  and  _220
REMARK   89  A    between atoms: _220  and  _221
REMARK   90  A    between atoms: _220  and  _223
REMARK   91  A    between atoms: _223  and  _224
REMARK   92  A    between atoms: _224  and  _225
REMARK   93  A    between atoms: _228  and  _230
REMARK   94  A    between atoms: _230  and  _231
REMARK   95  A    between atoms: _230  and  _233
REMARK   96  A    between atoms: _233  and  _234
REMARK   97  A    between atoms: _234  and  _235
REMARK   98  A    between atoms: _240  and  _242
REMARK   99  A    between atoms: _242  and  _243
REMARK  100  A    between atoms: _242  and  _245
REMARK  101  A    between atoms: _245  and  _246
REMARK  102  A    between atoms: _246  and  _247
REMARK  103  A    between atoms: _247  and  _248
REMARK  104  A    between atoms: _248  and  _249
REMARK  105  A    between atoms: _253  and  _255
REMARK  106  A    between atoms: _255  and  _256
REMARK  107  A    between atoms: _259  and  _261
REMARK  108  A    between atoms: _261  and  _262
REMARK  109  A    between atoms: _264  and  _266
REMARK  110  A    between atoms: _266  and  _267
REMARK  111  A    between atoms: _266  and  _269
REMARK  112  A    between atoms: _269  and  _270
REMARK  113  A    between atoms: _275  and  _277
REMARK  114  A    between atoms: _277  and  _278
REMARK  115  A    between atoms: _277  and  _280
REMARK  116  A    between atoms: _280  and  _281
REMARK  117  A    between atoms: _281  and  _282
REMARK  118  A    between atoms: _285  and  _287
REMARK  119  A    between atoms: _287  and  _288
REMARK  120  A    between atoms: _287  and  _290
REMARK  121  A    between atoms: _290  and  _291
REMARK  122  A    between atoms: _291  and  _292
REMARK  123  A    between atoms: _297  and  _299
REMARK  124  A    between atoms: _299  and  _300
REMARK  125  A    between atoms: _299  and  _302
REMARK  126  A    between atoms: _302  and  _303
REMARK  127  A    between atoms: _305  and  _307
REMARK  128  A    between atoms: _307  and  _308
REMARK  129  A    between atoms: _307  and  _310
REMARK  130  A    between atoms: _310  and  _311
REMARK  131  A    between atoms: _317  and  _319
REMARK  132  A    between atoms: _319  and  _320
REMARK  133  A    between atoms: _319  and  _322
REMARK  134  A    between atoms: _325  and  _327
REMARK  135  A    between atoms: _327  and  _328
REMARK  136  A    between atoms: _327  and  _330
REMARK  137  A    between atoms: _330  and  _331
REMARK  138  A    between atoms: _334  and  _336
REMARK  139  A    between atoms: _336  and  _337
REMARK  140  A    between atoms: _336  and  _339
REMARK  141  A    between atoms: _339  and  _340
REMARK  142  A    between atoms: _343  and  _345
REMARK  143  A    between atoms: _345  and  _346
REMARK  144  A    between atoms: _345  and  _348
REMARK  145  A    between atoms: _348  and  _349
REMARK  146  A    between atoms: _352  and  _354
REMARK  147  A    between atoms: _354  and  _355
REMARK  148  A    between atoms: _354  and  _357
REMARK  149  A    between atoms: _357  and  _358
REMARK  150  A    between atoms: _361  and  _363
REMARK  151  A    between atoms: _363  and  _364
REMARK  152  A    between atoms: _363  and  _366
REMARK  153  A    between atoms: _366  and  _367
REMARK  154  A    between atoms: _372  and  _373
REMARK  155  A    between atoms: _375  and  _377
REMARK  156  A    between atoms: _377  and  _378
REMARK  157  A    between atoms: _377  and  _380
REMARK  158  A    between atoms: _380  and  _381
REMARK  159  A    between atoms: _386  and  _387
REMARK  160  A    between atoms: _389  and  _391
REMARK  161  A    between atoms: _391  and  _392
REMARK  162  A    between atoms: _391  and  _394
REMARK  163  A    between atoms: _394  and  _395
REMARK  164  A    between atoms: _398  and  _400
REMARK  165  A    between atoms: _400  and  _401
REMARK  166  A    between atoms: _400  and  _403
REMARK  167  A    between atoms: _403  and  _404
REMARK  168  A    between atoms: _404  and  _405
REMARK  169  A    between atoms: _410  and  _412
REMARK  170  A    between atoms: _412  and  _413
REMARK  171  A    between atoms: _412  and  _415
REMARK  172  A    between atoms: _418  and  _420
REMARK  173  A    between atoms: _420  and  _421
REMARK  174  A    between atoms: _420  and  _423
REMARK  175  A    between atoms: _423  and  _424
REMARK  176  A    between atoms: _427  and  _429
REMARK  177  A    between atoms: _429  and  _430
REMARK  178  A    between atoms: _429  and  _432
REMARK  179  A    between atoms: _432  and  _433
REMARK  180  A    between atoms: _435  and  _437
REMARK  181  A    between atoms: _437  and  _438
REMARK  182  A    between atoms: _440  and  _442
REMARK  183  A    between atoms: _442  and  _443
REMARK  184  A    between atoms: _442  and  _445
REMARK  185  A    between atoms: _445  and  _446
REMARK  186  A    between atoms: _446  and  _744
REMARK  187  A    between atoms: _447  and  _449
REMARK  188  A    between atoms: _449  and  _450
REMARK  189  A    between atoms: _449  and  _452
REMARK  190  A    between atoms: _452  and  _453
REMARK  191  A    between atoms: _458  and  _459
REMARK  192  A    between atoms: _461  and  _463
REMARK  193  A    between atoms: _463  and  _464
REMARK  194  A    between atoms: _463  and  _466
REMARK  195  A    between atoms: _466  and  _467
REMARK  196  A    between atoms: _467  and  _468
REMARK  197  A    between atoms: _473  and  _475
REMARK  198  A    between atoms: _475  and  _476
REMARK  199  A    between atoms: _475  and  _478
REMARK  200  A    between atoms: _478  and  _479
REMARK  201  A    between atoms: _479  and  _480
REMARK  202  A    between atoms: _485  and  _487
REMARK  203  A    between atoms: _487  and  _488
REMARK  204  A    between atoms: _487  and  _490
REMARK  205  A    between atoms: _490  and  _491
REMARK  206  A    between atoms: _496  and  _497
REMARK  207  A    between atoms: _499  and  _501
REMARK  208  A    between atoms: _501  and  _502
REMARK  209  A    between atoms: _505  and  _507
REMARK  210  A    between atoms: _507  and  _508
REMARK  211  A    between atoms: _507  and  _510
REMARK  212  A    between atoms: _510  and  _511
REMARK  213  A    between atoms: _516  and  _517
REMARK  214  A    between atoms: _519  and  _521
REMARK  215  A    between atoms: _521  and  _522
REMARK  216  A    between atoms: _521  and  _524
REMARK  217  A    between atoms: _524  and  _525
REMARK  218  A    between atoms: _530  and  _531
REMARK  219  A    between atoms: _533  and  _535
REMARK  220  A    between atoms: _535  and  _536
REMARK  221  A    between atoms: _535  and  _538
REMARK  222  A    between atoms: _538  and  _539
REMARK  223  A    between atoms: _542  and  _544
REMARK  224  A    between atoms: _544  and  _545
REMARK  225  A    between atoms: _544  and  _547
REMARK  226  A    between atoms: _547  and  _548
REMARK  227  A    between atoms: _558  and  _560
REMARK  228  A    between atoms: _560  and  _561
REMARK  229  A    between atoms: _564  and  _566
REMARK  230  A    between atoms: _566  and  _567
REMARK  231  A    between atoms: _570  and  _572
REMARK  232  A    between atoms: _572  and  _573
REMARK  233  A    between atoms: _572  and  _575
REMARK  234  A    between atoms: _575  and  _576
REMARK  235  A    between atoms: _579  and  _581
REMARK  236  A    between atoms: _581  and  _582
REMARK  237  A    between atoms: _581  and  _584
REMARK  238  A    between atoms: _584  and  _585
REMARK  239  A    between atoms: _588  and  _590
REMARK  240  A    between atoms: _590  and  _591
REMARK  241  A    between atoms: _590  and  _593
REMARK  242  A    between atoms: _593  and  _594
REMARK  243  A    between atoms: _597  and  _599
REMARK  244  A    between atoms: _599  and  _600
REMARK  245  A    between atoms: _599  and  _602
REMARK  246  A    between atoms: _602  and  _603
REMARK  247  A    between atoms: _603  and  _604
REMARK  248  A    between atoms: _604  and  _605
REMARK  249  A    between atoms: _605  and  _606
REMARK  250  A    between atoms: _610  and  _612
REMARK  251  A    between atoms: _612  and  _613
REMARK  252  A    between atoms: _612  and  _615
REMARK  253  A    between atoms: _615  and  _616
REMARK  254  A    between atoms: _621  and  _623
REMARK  255  A    between atoms: _623  and  _624
REMARK  256  A    between atoms: _623  and  _626
REMARK  257  A    between atoms: _626  and  _627
REMARK  258  A    between atoms: _627  and  _628
REMARK  259  A    between atoms: _628  and  _629
REMARK  260  A    between atoms: _629  and  _630
REMARK  261  A    between atoms: _634  and  _636
REMARK  262  A    between atoms: _636  and  _637
REMARK  263  A    between atoms: _636  and  _639
REMARK  264  A    between atoms: _639  and  _640
REMARK  265  A    between atoms: _650  and  _652
REMARK  266  A    between atoms: _652  and  _653
REMARK  267  A    between atoms: _656  and  _658
REMARK  268  A    between atoms: _658  and  _659
REMARK  269  A    between atoms: _661  and  _663
REMARK  270  A    between atoms: _663  and  _664
REMARK  271  A    between atoms: _667  and  _669
REMARK  272  A    between atoms: _669  and  _670
REMARK  273  A    between atoms: _673  and  _675
REMARK  274  A    between atoms: _675  and  _676
REMARK  275  A    between atoms: _675  and  _678
REMARK  276  A    between atoms: _678  and  _679
REMARK  277  A    between atoms: _684  and  _685
REMARK  278  A    between atoms: _687  and  _689
REMARK  279  A    between atoms: _689  and  _690
REMARK  280  A    between atoms: _689  and  _692
REMARK  281  A    between atoms: _692  and  _693
REMARK  282  A    between atoms: _698  and  _699
REMARK  283  A    between atoms: _701  and  _703
REMARK  284  A    between atoms: _703  and  _704
REMARK  285  A    between atoms: _703  and  _706
REMARK  286  A    between atoms: _706  and  _707
REMARK  287  A    between atoms: _712  and  _713
REMARK  288  A    between atoms: _715  and  _717
REMARK  289  A    between atoms: _717  and  _718
REMARK  290  A    between atoms: _717  and  _720
REMARK  291  A    between atoms: _720  and  _721
REMARK  292  A    between atoms: _724  and  _726
REMARK  293  A    between atoms: _726  and  _727
REMARK  294  A    between atoms: _729  and  _731
REMARK  295  A    between atoms: _731  and  _732
REMARK  296  A    between atoms: _731  and  _734
REMARK  297  A    between atoms: _734  and  _735
REMARK  298  A    between atoms: _738  and  _740
REMARK  299  A    between atoms: _740  and  _741
REMARK  300  A    between atoms: _740  and  _743
REMARK  301  A    between atoms: _743  and  _744
REMARK  302  A    between atoms: _745  and  _747
REMARK  303  A    between atoms: _747  and  _748
REMARK  304  A    between atoms: _747  and  _750
REMARK  305  A    between atoms: _753  and  _755
REMARK  306  A    between atoms: _755  and  _756
REMARK  307  A    between atoms: _755  and  _758
REMARK  308  A    between atoms: _758  and  _759
REMARK  309  A    between atoms: _759  and  _760
REMARK  310  A    between atoms: _763  and  _765
REMARK  311  A    between atoms: _765  and  _766
REMARK  312  A    between atoms: _765  and  _768
REMARK  313  A    between atoms: _768  and  _769
REMARK  314  A    between atoms: _779  and  _781
REMARK  315  A    between atoms: _781  and  _782
REMARK  316  A    between atoms: _781  and  _784
REMARK  317  A    between atoms: _784  and  _785
REMARK  318  A    between atoms: _788  and  _790
REMARK  319  A    between atoms: _790  and  _791
REMARK  320  A    between atoms: _790  and  _793
REMARK  321  A    between atoms: _793  and  _794
REMARK  322  A    between atoms: _799  and  _800
REMARK                            x       y       z     vdW  Elec       q    Type
REMARK                         _______ _______ _______ _____ _____    ______ ____
ROOT
ATOM      1  C   TYR A   1      50.265  62.990  -8.411  0.00  0.00    +0.239 C 
ATOM      2  O   TYR A   1      50.636  63.038  -7.236  0.00  0.00    -0.274 OA
ATOM      3  N   TYR A   2      50.154  61.844  -9.074  0.00  0.00    -0.298 N 
ATOM      4  H   TYR A   2      49.851  61.837 -10.069  0.00  0.00    +0.150 HD
ENDROOT
BRANCH   1   5
ATOM      5  CA  TYR A   1      49.927  64.267  -9.170  0.00  0.00    +0.149 C 
BRANCH   5   6
ATOM      6  N   TYR A   1      50.434  64.207 -10.537  0.00  0.00    -0.238 NA
ATOM      7  H   TYR A   1      49.766  64.178 -11.333  0.00  0.00    +0.142 HD
ENDBRANCH   5   6
BRANCH   5   8
ATOM      8  CB  TYR A   1      48.410  64.487  -9.155  0.00  0.00    +0.053 C 
BRANCH   8   9
ATOM      9  CG  TYR A   1      47.989  65.894  -9.519  0.00  0.00    -0.020 A 
ATOM     10  CD2 TYR A   1      48.142  66.942  -8.610  0.00  0.00    -0.001 A 
ATOM     11  CE2 TYR A   1      47.768  68.246  -8.941  0.00  0.00    +0.036 A 
ATOM     12  CZ  TYR A   1      47.234  68.508 -10.192  0.00  0.00    +0.134 A 
ATOM     13  CE1 TYR A   1      47.070  67.483 -11.113  0.00  0.00    +0.036 A 
ATOM     14  CD1 TYR A   1      47.449  66.182 -10.772  0.00  0.00    -0.001 A 
BRANCH  12  15
ATOM     15  OH  TYR A   1      46.871  69.796 -10.523  0.00  0.00    -0.506 OA
ATOM     16  HH  TYR A   1      46.510  69.809 -11.445  0.00  0.00    +0.292 HD
ENDBRANCH  12  15
ENDBRANCH   8   9
ENDBRANCH   5   8
ENDBRANCH   1   5
BRANCH   3  17
ATOM     17  CA  TYR A   2      50.463  60.596  -8.386  0.00  0.00    +0.141 C 
BRANCH  17  18
ATOM     18  C   TYR A   2      51.958  60.472  -8.132  0.00  0.00    +0.227 C 
ATOM     19  O   TYR A   2      52.379  59.935  -7.102  0.00  0.00    -0.286 OA
ENDBRANCH  17  18
BRANCH  17  20
ATOM     20  CB  TYR A   2      49.969  59.380  -9.173  0.00  0.00    +0.054 C 
BRANCH  20  21
ATOM     21  CG  TYR A   2      50.070  58.105  -8.363  0.00  0.00    -0.020 A 
ATOM     22  CD2 TYR A   2      49.321  57.940  -7.196  0.00  0.00    -0.001 A 
ATOM     23  CE2 TYR A   2      49.440  56.784  -6.417  0.00  0.00    +0.036 A 
ATOM     24  CZ  TYR A   2      50.315  55.783  -6.811  0.00  0.00    +0.134 A 
ATOM     25  CE1 TYR A   2      51.069  55.923  -7.968  0.00  0.00    +0.036 A 
ATOM     26  CD1 TYR A   2      50.941  57.082  -8.737  0.00  0.00    -0.001 A 
BRANCH  24  27
ATOM     27  OH  TYR A   2      50.442  54.641  -6.050  0.00  0.00    -0.506 OA
ATOM     28  HH  TYR A   2      50.198  53.853  -6.597  0.00  0.00    +0.292 HD
ENDBRANCH  24  27
ENDBRANCH  20  21
ENDBRANCH  17  20
ENDBRANCH   3  17
TORSDOF 10
REMARK  Name = ../refined-set-2016/1fzk/1fzk_pocket.pdb
REMARK  322 active torsions:
REMARK  status: ('A' for Active; 'I' for Inactive)
REMARK    1  A    between atoms: _1  and  _3
REMARK    2  A    between atoms: _3  and  _4
REMARK    3  A    between atoms: _3  and  _6
REMARK    4  A    between atoms: _6  and  _7
REMARK    5  A    between atoms: _10  and  _12
REMARK    6  A    between atoms: _12  and  _13
REMARK    7  A    between atoms: _12  and  _15
REMARK    8  A    between atoms: _15  and  _16
REMARK    9  A    between atoms: _16  and  _17
REMARK   10  A    between atoms: _17  and  _18
REMARK   11  A    between atoms: _27  and  _29
REMARK   12  A    between atoms: _29  and  _30
REMARK   13  A    between atoms: _29  and  _32
REMARK   14  A    between atoms: _32  and  _33
REMARK   15  A    between atoms: _38  and  _39
REMARK   16  A    between atoms: _41  and  _43
REMARK   17  A    between atoms: _43  and  _44
REMARK   18  A    between atoms: _43  and  _46
REMARK   19  A    between atoms: _46  and  _47
REMARK   20  A    between atoms: _53  and  _55
REMARK   21  A    between atoms: _55  and  _56
REMARK   22  A    between atoms: _55  and  _58
REMARK   23  A    between atoms: _61  and  _63
REMARK   24  A    between atoms: _63  and  _64
REMARK   25  A    between atoms: _63  and  _66
REMARK   26  A    between atoms: _66  and  _67
REMARK   27  A    between atoms: _70  and  _72
REMARK   28  A    between atoms: _72  and  _73
REMARK   29  A    between atoms: _72  and  _75
REMARK   30  A    between atoms: _75  and  _76
REMARK   31  A    between atoms: _81  and  _82
REMARK   32  A    between atoms: _84  and  _86
REMARK   33  A    between atoms: _86  and  _87
REMARK   34  A    between atoms: _86  and  _89
REMARK   35  A    between atoms: _89  and  _90
REMARK   36  A    between atoms: _90  and  _91
REMARK   37  A    between atoms: _93  and  _95
REMARK   38  A    between atoms: _95  and  _96
REMARK   39  A    between atoms: _95  and  _98
REMARK   40  A    between atoms: _98  and  _99
REMARK   41  A    between atoms: _99  and  _100
REMARK   42  A    between atoms: _103  and  _105
REMARK   43  A    between atoms: _105  and  _106
REMARK   44  A    between atoms: _105  and  _108
REMARK   45  A    between atoms: _111  and  _113
REMARK   46  A    between atoms: _113  and  _114
REMARK   47  A    between atoms: _116  and  _118
REMARK   48  A    between atoms: _118  and  _119
REMARK   49  A    between atoms: _118  and  _121
REMARK   50  A    between atoms: _124  and  _126
REMARK   51  A    between atoms: _126  and  _127
REMARK   52  A    between atoms: _126  and  _129
REMARK   53  A    between atoms: _129  and  _130
REMARK   54  A    between atoms: _136  and  _138
REMARK   55  A    between atoms: _138  and  _139
REMARK   56  A    between atoms: _138  and  _141
REMARK   57  A    between atoms: _144  and  _146
REMARK   58  A    between atoms: _146  and  _147
REMARK   59  A    between atoms: _146  and  _149
REMARK   60  A    between atoms: _149  and  _150
REMARK   61  A    between atoms: _155  and  _156
REMARK   62  A    between atoms: _158  and  _160
REMARK   63  A    between atoms: _160  and  _161
REMARK   64  A    between atoms: _160  and  _163
REMARK   65  A    between atoms: _163  and  _164
REMARK   66  A    between atoms: _164  and  _165
REMARK   67  A    between atoms: _167  and  _169
REMARK   68  A    between atoms: _169  and  _170
REMARK   69  A    between atoms: _169  and  _172
REMARK   70  A    between atoms: _172  and  _173
REMARK   71  A    between atoms: _173  and  _174
REMARK   72  A    between atoms: _177  and  _179
REMARK   73  A    between atoms: _179  and  _180
REMARK   74  A    between atoms: _179  and  _182
REMARK   75  A    between atoms: _182  and  _183
REMARK   76  A    between atoms: _183  and  _184
REMARK   77  A    between atoms: _187  and  _189
REMARK   78  A    between atoms: _189  and  _190
REMARK   79  A    between atoms: _189  and  _192
REMARK   80  A    between atoms: _192  and  _193
REMARK   81  A    between atoms: _198  and  _199
REMARK   82  A    between atoms: _201  and  _203
REMARK   83  A    between atoms: _203  and  _204
REMARK   84  A    between atoms: _203  and  _206
REMARK   85  A    between atoms: _206  and  _207
REMARK   86  A    between atoms: _207  and  _208
REMARK   87  A    between atoms: _208  and  _209
REMARK   88  A    between atoms: _218  and  _220
REMARK   89  A    between atoms: _220  and  _221
REMARK   90  A    between atoms: _220  and  _223
REMARK   91  A    between atoms: _223  and  _224
REMARK   92  A    between atoms: _224  and  _225
REMARK   93  A    between atoms: _228  and  _230
REMARK   94  A    between atoms: _230  and  _231
REMARK   95  A    between atoms: _230  and  _233
REMARK   96  A    between atoms: _233  and  _234
REMARK   97  A    between atoms: _234  and  _235
REMARK   98  A    between atoms: _240  and  _242
REMARK   99  A    between atoms: _242  and  _243
REMARK  100  A    between atoms: _242  and  _245
REMARK  101  A    between atoms: _245  and  _246
REMARK  102  A    between atoms: _246  and  _247
REMARK  103  A    between atoms: _247  and  _248
REMARK  104  A    between atoms: _248  and  _249
REMARK  105  A    between atoms: _253  and  _255
REMARK  106  A    between atoms: _255  and  _256
REMARK  107  A    between atoms: _259  and  _261
REMARK  108  A    between atoms: _261  and  _262
REMARK  109  A    between atoms: _264  and  _266
REMARK  110  A    between atoms: _266  and  _267
REMARK  111  A    between atoms: _266  and  _269
REMARK  112  A    between atoms: _269  and  _270
REMARK  113  A    between atoms: _275  and  _277
REMARK  114  A    between atoms: _277  and  _278
REMARK  115  A    between atoms: _277  and  _280
REMARK  116  A    between atoms: _280  and  _281
REMARK  117  A    between atoms: _281  and  _282
REMARK  118  A    between atoms: _285  and  _287
REMARK  119  A    between atoms: _287  and  _288
REMARK  120  A    between atoms: _287  and  _290
REMARK  121  A    between atoms: _290  and  _291
REMARK  122  A    between atoms: _291  and  _292
REMARK  123  A    between atoms: _297  and  _299
REMARK  124  A    between atoms: _299  and  _300
REMARK  125  A    between atoms: _299  and  _302
REMARK  126  A    between atoms: _302  and  _303
REMARK  127  A    between atoms: _305  and  _307
REMARK  128  A    between atoms: _307  and  _308
REMARK  129  A    between atoms: _307  and  _310
REMARK  130  A    between atoms: _310  and  _311
REMARK  131  A    between atoms: _317  and  _319
REMARK  132  A    between atoms: _319  and  _320
REMARK  133  A    between atoms: _319  and  _322
REMARK  134  A    between atoms: _325  and  _327
REMARK  135  A    between atoms: _327  and  _328
REMARK  136  A    between atoms: _327  and  _330
REMARK  137  A    between atoms: _330  and  _331
REMARK  138  A    between atoms: _334  and  _336
REMARK  139  A    between atoms: _336  and  _337
REMARK  140  A    between atoms: _336  and  _339
REMARK  141  A    between atoms: _339  and  _340
REMARK  142  A    between atoms: _343  and  _345
REMARK  143  A    between atoms: _345  and  _346
REMARK  144  A    between atoms: _345  and  _348
REMARK  145  A    between atoms: _348  and  _349
REMARK  146  A    between atoms: _352  and  _354
REMARK  147  A    between atoms: _354  and  _355
REMARK  148  A    between atoms: _354  and  _357
REMARK  149  A    between atoms: _357  and  _358
REMARK  150  A    between atoms: _361  and  _363
REMARK  151  A    between atoms: _363  and  _364
REMARK  152  A    between atoms: _363  and  _366
REMARK  153  A    between atoms: _366  and  _367
REMARK  154  A    between atoms: _372  and  _373
REMARK  155  A    between atoms: _375  and  _377
REMARK  156  A    between atoms: _377  and  _378
REMARK  157  A    between atoms: _377  and  _380
REMARK  158  A    between atoms: _380  and  _381
REMARK  159  A    between atoms: _386  and  _387
REMARK  160  A    between atoms: _389  and  _391
REMARK  161  A    between atoms: _391  and  _392
REMARK  162  A    between atoms: _391  and  _394
REMARK  163  A    between atoms: _394  and  _395
REMARK  164  A    between atoms: _398  and  _400
REMARK  165  A    between atoms: _400  and  _401
REMARK  166  A    between atoms: _400  and  _403
REMARK  167  A    between atoms: _403  and  _404
REMARK  168  A    between atoms: _404  and  _405
REMARK  169  A    between atoms: _410  and  _412
REMARK  170  A    between atoms: _412  and  _413
REMARK  171  A    between atoms: _412  and  _415
REMARK  172  A    between atoms: _418  and  _420
REMARK  173  A    between atoms: _420  and  _421
REMARK  174  A    between atoms: _420  and  _423
REMARK  175  A    between atoms: _423  and  _424
REMARK  176  A    between atoms: _427  and  _429
REMARK  177  A    between atoms: _429  and  _430
REMARK  178  A    between atoms: _429  and  _432
REMARK  179  A    between atoms: _432  and  _433
REMARK  180  A    between atoms: _435  and  _437
REMARK  181  A    between atoms: _437  and  _438
REMARK  182  A    between atoms: _440  and  _442
REMARK  183  A    between atoms: _442  and  _443
REMARK  184  A    between atoms: _442  and  _445
REMARK  185  A    between atoms: _445  and  _446
REMARK  186  A    between atoms: _446  and  _744
REMARK  187  A    between atoms: _447  and  _449
REMARK  188  A    between atoms: _449  and  _450
REMARK  189  A    between atoms: _449  and  _452
REMARK  190  A    between atoms: _452  and  _453
REMARK  191  A    between atoms: _458  and  _459
REMARK  192  A    between atoms: _461  and  _463
REMARK  193  A    between atoms: _463  and  _464
REMARK  194  A    between atoms: _463  and  _466
REMARK  195  A    between atoms: _466  and  _467
REMARK  196  A    between atoms: _467  and  _468
REMARK  197  A    between atoms: _473  and  _475
REMARK  198  A    between atoms: _475  and  _476
REMARK  199  A    between atoms: _475  and  _478
REMARK  200  A    between atoms: _478  and  _479
REMARK  201  A    between atoms: _479  and  _480
REMARK  202  A    between atoms: _485  and  _487
REMARK  203  A    between atoms: _487  and  _488
REMARK  204  A    between atoms: _487  and  _490
REMARK  205  A    between atoms: _490  and  _491
REMARK  206  A    between atoms: _496  and  _497
REMARK  207  A    between atoms: _499  and  _501
REMARK  208  A    between atoms: _501  and  _502
REMARK  209  A    between atoms: _505  and  _507
REMARK  210  A    between atoms: _507  and  _508
REMARK  211  A    between atoms: _507  and  _510
REMARK  212  A    between atoms: _510  and  _511
REMARK  213  A    between atoms: _516  and  _517
REMARK  214  A    between atoms: _519  and  _521
REMARK  215  A    between atoms: _521  and  _522
REMARK  216  A    between atoms: _521  and  _524
REMARK  217  A    between atoms: _524  and  _525
REMARK  218  A    between atoms: _530  and  _531
REMARK  219  A    between atoms: _533  and  _535
REMARK  220  A    between atoms: _535  and  _536
REMARK  221  A    between atoms: _535  and  _538
REMARK  222  A    between atoms: _538  and  _539
REMARK  223  A    between atoms: _542  and  _544
REMARK  224  A    between atoms: _544  and  _545
REMARK  225  A    between atoms: _544  and  _547
REMARK  226  A    between atoms: _547  and  _548
REMARK  227  A    between atoms: _558  and  _560
REMARK  228  A    between atoms: _560  and  _561
REMARK  229  A    between atoms: _564  and  _566
REMARK  230  A    between atoms: _566  and  _567
REMARK  231  A    between atoms: _570  and  _572
REMARK  232  A    between atoms: _572  and  _573
REMARK  233  A    between atoms: _572  and  _575
REMARK  234  A    between atoms: _575  and  _576
REMARK  235  A    between atoms: _579  and  _581
REMARK  236  A    between atoms: _581  and  _582
REMARK  237  A    between atoms: _581  and  _584
REMARK  238  A    between atoms: _584  and  _585
REMARK  239  A    between atoms: _588  and  _590
REMARK  240  A    between atoms: _590  and  _591
REMARK  241  A    between atoms: _590  and  _593
REMARK  242  A    between atoms: _593  and  _594
REMARK  243  A    between atoms: _597  and  _599
REMARK  244  A    between atoms: _599  and  _600
REMARK  245  A    between atoms: _599  and  _602
REMARK  246  A    between atoms: _602  and  _603
REMARK  247  A    between atoms: _603  and  _604
REMARK  248  A    between atoms: _604  and  _605
REMARK  249  A    between atoms: _605  and  _606
REMARK  250  A    between atoms: _610  and  _612
REMARK  251  A    between atoms: _612  and  _613
REMARK  252  A    between atoms: _612  and  _615
REMARK  253  A    between atoms: _615  and  _616
REMARK  254  A    between atoms: _621  and  _623
REMARK  255  A    between atoms: _623  and  _624
REMARK  256  A    between atoms: _623  and  _626
REMARK  257  A    between atoms: _626  and  _627
REMARK  258  A    between atoms: _627  and  _628
REMARK  259  A    between atoms: _628  and  _629
REMARK  260  A    between atoms: _629  and  _630
REMARK  261  A    between atoms: _634  and  _636
REMARK  262  A    between atoms: _636  and  _637
REMARK  263  A    between atoms: _636  and  _639
REMARK  264  A    between atoms: _639  and  _640
REMARK  265  A    between atoms: _650  and  _652
REMARK  266  A    between atoms: _652  and  _653
REMARK  267  A    between atoms: _656  and  _658
REMARK  268  A    between atoms: _658  and  _659
REMARK  269  A    between atoms: _661  and  _663
REMARK  270  A    between atoms: _663  and  _664
REMARK  271  A    between atoms: _667  and  _669
REMARK  272  A    between atoms: _669  and  _670
REMARK  273  A    between atoms: _673  and  _675
REMARK  274  A    between atoms: _675  and  _676
REMARK  275  A    between atoms: _675  and  _678
REMARK  276  A    between atoms: _678  and  _679
REMARK  277  A    between atoms: _684  and  _685
REMARK  278  A    between atoms: _687  and  _689
REMARK  279  A    between atoms: _689  and  _690
REMARK  280  A    between atoms: _689  and  _692
REMARK  281  A    between atoms: _692  and  _693
REMARK  282  A    between atoms: _698  and  _699
REMARK  283  A    between atoms: _701  and  _703
REMARK  284  A    between atoms: _703  and  _704
REMARK  285  A    between atoms: _703  and  _706
REMARK  286  A    between atoms: _706  and  _707
REMARK  287  A    between atoms: _712  and  _713
REMARK  288  A    between atoms: _715  and  _717
REMARK  289  A    between atoms: _717  and  _718
REMARK  290  A    between atoms: _717  and  _720
REMARK  291  A    between atoms: _720  and  _721
REMARK  292  A    between atoms: _724  and  _726
REMARK  293  A    between atoms: _726  and  _727
REMARK  294  A    between atoms: _729  and  _731
REMARK  295  A    between atoms: _731  and  _732
REMARK  296  A    between atoms: _731  and  _734
REMARK  297  A    between atoms: _734  and  _735
REMARK  298  A    between atoms: _738  and  _740
REMARK  299  A    between atoms: _740  and  _741
REMARK  300  A    between atoms: _740  and  _743
REMARK  301  A    between atoms: _743  and  _744
REMARK  302  A    between atoms: _745  and  _747
REMARK  303  A    between atoms: _747  and  _748
REMARK  304  A    between atoms: _747  and  _750
REMARK  305  A    between atoms: _753  and  _755
REMARK  306  A    between atoms: _755  and  _756
REMARK  307  A    between atoms: _755  and  _758
REMARK  308  A    between atoms: _758  and  _759
REMARK  309  A    between atoms: _759  and  _760
REMARK  310  A    between atoms: _763  and  _765
REMARK  311  A    between atoms: _765  and  _766
REMARK  312  A    between atoms: _765  and  _768
REMARK  313  A    between atoms: _768  and  _769
REMARK  314  A    between atoms: _779  and  _781
REMARK  315  A    between atoms: _781  and  _782
REMARK  316  A    between atoms: _781  and  _784
REMARK  317  A    between atoms: _784  and  _785
REMARK  318  A    between atoms: _788  and  _790
REMARK  319  A    between atoms: _790  and  _791
REMARK  320  A    between atoms: _790  and  _793
REMARK  321  A    between atoms: _793  and  _794
REMARK  322  A    between atoms: _799  and  _800
REMARK                            x       y       z     vdW  Elec       q    Type
REMARK                         _______ _______ _______ _____ _____    ______ ____
ROOT
ATOM      1  CA  TYR A   1      52.442  61.402  -3.802  0.00  0.00    +0.149 C 
ENDROOT
BRANCH   1   2
ATOM      2  C   TYR A   1      53.518  60.353  -3.518  0.00  0.00    +0.239 C 
ATOM      3  O   TYR A   1      53.968  60.201  -2.381  0.00  0.00    -0.274 OA
ATOM      4  N   LEU A   2      53.940  59.640  -4.558  0.00  0.00    -0.298 N 
ATOM      5  H   LEU A   2      53.540  59.824  -5.500  0.00  0.00    +0.150 HD
BRANCH   4   6
ATOM      6  CA  LEU A   2      54.957  58.602  -4.398  0.00  0.00    +0.137 C 
BRANCH   6   7
ATOM      7  C   LEU A   2      56.279  59.106  -3.824  0.00  0.00    +0.227 C 
ATOM      8  O   LEU A   2      56.804  58.541  -2.861  0.00  0.00    -0.286 OA
ENDBRANCH   6   7
BRANCH   6   9
ATOM      9  CB  LEU A   2      55.235  57.919  -5.739  0.00  0.00    +0.028 C 
BRANCH   9  10
ATOM     10  CG  LEU A   2      54.135  57.066  -6.376  0.00  0.00    +0.002 C 
ATOM     11  CD2 LEU A   2      53.811  55.873  -5.476  0.00  0.00    +0.000 C 
ATOM     12  CD1 LEU A   2      54.596  56.599  -7.752  0.00  0.00    +0.000 C 
ENDBRANCH   9  10
ENDBRANCH   6   9
ENDBRANCH   4   6
ENDBRANCH   1   2
BRANCH   1  13
ATOM     13  N   TYR A   1      52.830  62.176  -4.986  0.00  0.00    -0.238 NA
ATOM     14  H   TYR A   1      52.250  62.116  -5.847  0.00  0.00    +0.142 HD
ENDBRANCH   1  13
BRANCH   1  15
ATOM     15  CB  TYR A   1      51.088  60.709  -4.033  0.00  0.00    +0.053 C 
BRANCH  15  16
ATOM     16  CG  TYR A   1      50.779  59.587  -3.057  0.00  0.00    -0.020 A 
ATOM     17  CD2 TYR A   1      50.384  59.853  -1.745  0.00  0.00    -0.001 A 
ATOM     18  CE2 TYR A   1      50.119  58.812  -0.846  0.00  0.00    +0.036 A 
ATOM     19  CZ  TYR A   1      50.258  57.496  -1.266  0.00  0.00    +0.134 A 
ATOM     20  CE1 TYR A   1      50.647  57.213  -2.561  0.00  0.00    +0.036 A 
ATOM     21  CD1 TYR A   1      50.904  58.254  -3.448  0.00  0.00    -0.001 A 
BRANCH  19  22
ATOM     22  OH  TYR A   1      50.025  56.458  -0.391  0.00  0.00    -0.506 OA
ATOM     23  HH  TYR A   1      49.756  56.824   0.489  0.00  0.00    +0.292 HD
ENDBRANCH  19  22
ENDBRANCH  15  16
ENDBRANCH   1  15
TORSDOF 9
REMARK  Name = ../refined-set-2016/1fzk/1fzk_pocket.pdb
REMARK  322 active torsions:
REMARK  status: ('A' for Active; 'I' for Inactive)
REMARK    1  A    between atoms: _1  and  _3
REMARK    2  A    between atoms: _3  and  _4
REMARK    3  A    between atoms: _3  and  _6
REMARK    4  A    between atoms: _6  and  _7
REMARK    5  A    between atoms: _10  and  _12
REMARK    6  A    between atoms: _12  and  _13
REMARK    7  A    between atoms: _12  and  _15
REMARK    8  A    between atoms: _15  and  _16
REMARK    9  A    between atoms: _16  and  _17
REMARK   10  A    between atoms: _17  and  _18
REMARK   11  A    between atoms: _27  and  _29
REMARK   12  A    between atoms: _29  and  _30
REMARK   13  A    between atoms: _29  and  _32
REMARK   14  A    between atoms: _32  and  _33
REMARK   15  A    between atoms: _38  and  _39
REMARK   16  A    between atoms: _41  and  _43
REMARK   17  A    between atoms: _43  and  _44
REMARK   18  A    between atoms: _43  and  _46
REMARK   19  A    between atoms: _46  and  _47
REMARK   20  A    between atoms: _53  and  _55
REMARK   21  A    between atoms: _55  and  _56
REMARK   22  A    between atoms: _55  and  _58
REMARK   23  A    between atoms: _61  and  _63
REMARK   24  A    between atoms: _63  and  _64
REMARK   25  A    between atoms: _63  and  _66
REMARK   26  A    between atoms: _66  and  _67
REMARK   27  A    between atoms: _70  and  _72
REMARK   28  A    between atoms: _72  and  _73
REMARK   29  A    between atoms: _72  and  _75
REMARK   30  A    between atoms: _75  and  _76
REMARK   31  A    between atoms: _81  and  _82
REMARK   32  A    between atoms: _84  and  _86
REMARK   33  A    between atoms: _86  and  _87
REMARK   34  A    between atoms: _86  and  _89
REMARK   35  A    between atoms: _89  and  _90
REMARK   36  A    between atoms: _90  and  _91
REMARK   37  A    between atoms: _93  and  _95
REMARK   38  A    between atoms: _95  and  _96
REMARK   39  A    between atoms: _95  and  _98
REMARK   40  A    between atoms: _98  and  _99
REMARK   41  A    between atoms: _99  and  _100
REMARK   42  A    between atoms: _103  and  _105
REMARK   43  A    between atoms: _105  and  _106
REMARK   44  A    between atoms: _105  and  _108
REMARK   45  A    between atoms: _111  and  _113
REMARK   46  A    between atoms: _113  and  _114
REMARK   47  A    between atoms: _116  and  _118
REMARK   48  A    between atoms: _118  and  _119
REMARK   49  A    between atoms: _118  and  _121
REMARK   50  A    between atoms: _124  and  _126
REMARK   51  A    between atoms: _126  and  _127
REMARK   52  A    between atoms: _126  and  _129
REMARK   53  A    between atoms: _129  and  _130
REMARK   54  A    between atoms: _136  and  _138
REMARK   55  A    between atoms: _138  and  _139
REMARK   56  A    between atoms: _138  and  _141
REMARK   57  A    between atoms: _144  and  _146
REMARK   58  A    between atoms: _146  and  _147
REMARK   59  A    between atoms: _146  and  _149
REMARK   60  A    between atoms: _149  and  _150
REMARK   61  A    between atoms: _155  and  _156
REMARK   62  A    between atoms: _158  and  _160
REMARK   63  A    between atoms: _160  and  _161
REMARK   64  A    between atoms: _160  and  _163
REMARK   65  A    between atoms: _163  and  _164
REMARK   66  A    between atoms: _164  and  _165
REMARK   67  A    between atoms: _167  and  _169
REMARK   68  A    between atoms: _169  and  _170
REMARK   69  A    between atoms: _169  and  _172
REMARK   70  A    between atoms: _172  and  _173
REMARK   71  A    between atoms: _173  and  _174
REMARK   72  A    between atoms: _177  and  _179
REMARK   73  A    between atoms: _179  and  _180
REMARK   74  A    between atoms: _179  and  _182
REMARK   75  A    between atoms: _182  and  _183
REMARK   76  A    between atoms: _183  and  _184
REMARK   77  A    between atoms: _187  and  _189
REMARK   78  A    between atoms: _189  and  _190
REMARK   79  A    between atoms: _189  and  _192
REMARK   80  A    between atoms: _192  and  _193
REMARK   81  A    between atoms: _198  and  _199
REMARK   82  A    between atoms: _201  and  _203
REMARK   83  A    between atoms: _203  and  _204
REMARK   84  A    between atoms: _203  and  _206
REMARK   85  A    between atoms: _206  and  _207
REMARK   86  A    between atoms: _207  and  _208
REMARK   87  A    between atoms: _208  and  _209
REMARK   88  A    between atoms: _218  and  _220
REMARK   89  A    between atoms: _220  and  _221
REMARK   90  A    between atoms: _220  and  _223
REMARK   91  A    between atoms: _223  and  _224
REMARK   92  A    between atoms: _224  and  _225
REMARK   93  A    between atoms: _228  and  _230
REMARK   94  A    between atoms: _230  and  _231
REMARK   95  A    between atoms: _230  and  _233
REMARK   96  A    between atoms: _233  and  _234
REMARK   97  A    between atoms: _234  and  _235
REMARK   98  A    between atoms: _240  and  _242
REMARK   99  A    between atoms: _242  and  _243
REMARK  100  A    between atoms: _242  and  _245
REMARK  101  A    between atoms: _245  and  _246
REMARK  102  A    between atoms: _246  and  _247
REMARK  103  A    between atoms: _247  and  _248
REMARK  104  A    between atoms: _248  and  _249
REMARK  105  A    between atoms: _253  and  _255
REMARK  106  A    between atoms: _255  and  _256
REMARK  107  A    between atoms: _259  and  _261
REMARK  108  A    between atoms: _261  and  _262
REMARK  109  A    between atoms: _264  and  _266
REMARK  110  A    between atoms: _266  and  _267
REMARK  111  A    between atoms: _266  and  _269
REMARK  112  A    between atoms: _269  and  _270
REMARK  113  A    between atoms: _275  and  _277
REMARK  114  A    between atoms: _277  and  _278
REMARK  115  A    between atoms: _277  and  _280
REMARK  116  A    between atoms: _280  and  _281
REMARK  117  A    between atoms: _281  and  _282
REMARK  118  A    between atoms: _285  and  _287
REMARK  119  A    between atoms: _287  and  _288
REMARK  120  A    between atoms: _287  and  _290
REMARK  121  A    between atoms: _290  and  _291
REMARK  122  A    between atoms: _291  and  _292
REMARK  123  A    between atoms: _297  and  _299
REMARK  124  A    between atoms: _299  and  _300
REMARK  125  A    between atoms: _299  and  _302
REMARK  126  A    between atoms: _302  and  _303
REMARK  127  A    between atoms: _305  and  _307
REMARK  128  A    between atoms: _307  and  _308
REMARK  129  A    between atoms: _307  and  _310
REMARK  130  A    between atoms: _310  and  _311
REMARK  131  A    between atoms: _317  and  _319
REMARK  132  A    between atoms: _319  and  _320
REMARK  133  A    between atoms: _319  and  _322
REMARK  134  A    between atoms: _325  and  _327
REMARK  135  A    between atoms: _327  and  _328
REMARK  136  A    between atoms: _327  and  _330
REMARK  137  A    between atoms: _330  and  _331
REMARK  138  A    between atoms: _334  and  _336
REMARK  139  A    between atoms: _336  and  _337
REMARK  140  A    between atoms: _336  and  _339
REMARK  141  A    between atoms: _339  and  _340
REMARK  142  A    between atoms: _343  and  _345
REMARK  143  A    between atoms: _345  and  _346
REMARK  144  A    between atoms: _345  and  _348
REMARK  145  A    between atoms: _348  and  _349
REMARK  146  A    between atoms: _352  and  _354
REMARK  147  A    between atoms: _354  and  _355
REMARK  148  A    between atoms: _354  and  _357
REMARK  149  A    between atoms: _357  and  _358
REMARK  150  A    between atoms: _361  and  _363
REMARK  151  A    between atoms: _363  and  _364
REMARK  152  A    between atoms: _363  and  _366
REMARK  153  A    between atoms: _366  and  _367
REMARK  154  A    between atoms: _372  and  _373
REMARK  155  A    between atoms: _375  and  _377
REMARK  156  A    between atoms: _377  and  _378
REMARK  157  A    between atoms: _377  and  _380
REMARK  158  A    between atoms: _380  and  _381
REMARK  159  A    between atoms: _386  and  _387
REMARK  160  A    between atoms: _389  and  _391
REMARK  161  A    between atoms: _391  and  _392
REMARK  162  A    between atoms: _391  and  _394
REMARK  163  A    between atoms: _394  and  _395
REMARK  164  A    between atoms: _398  and  _400
REMARK  165  A    between atoms: _400  and  _401
REMARK  166  A    between atoms: _400  and  _403
REMARK  167  A    between atoms: _403  and  _404
REMARK  168  A    between atoms: _404  and  _405
REMARK  169  A    between atoms: _410  and  _412
REMARK  170  A    between atoms: _412  and  _413
REMARK  171  A    between atoms: _412  and  _415
REMARK  172  A    between atoms: _418  and  _420
REMARK  173  A    between atoms: _420  and  _421
REMARK  174  A    between atoms: _420  and  _423
REMARK  175  A    between atoms: _423  and  _424
REMARK  176  A    between atoms: _427  and  _429
REMARK  177  A    between atoms: _429  and  _430
REMARK  178  A    between atoms: _429  and  _432
REMARK  179  A    between atoms: _432  and  _433
REMARK  180  A    between atoms: _435  and  _437
REMARK  181  A    between atoms: _437  and  _438
REMARK  182  A    between atoms: _440  and  _442
REMARK  183  A    between atoms: _442  and  _443
REMARK  184  A    between atoms: _442  and  _445
REMARK  185  A    between atoms: _445  and  _446
REMARK  186  A    between atoms: _446  and  _744
REMARK  187  A    between atoms: _447  and  _449
REMARK  188  A    between atoms: _449  and  _450
REMARK  189  A    between atoms: _449  and  _452
REMARK  190  A    between atoms: _452  and  _453
REMARK  191  A    between atoms: _458  and  _459
REMARK  192  A    between atoms: _461  and  _463
REMARK  193  A    between atoms: _463  and  _464
REMARK  194  A    between atoms: _463  and  _466
REMARK  195  A    between atoms: _466  and  _467
REMARK  196  A    between atoms: _467  and  _468
REMARK  197  A    between atoms: _473  and  _475
REMARK  198  A    between atoms: _475  and  _476
REMARK  199  A    between atoms: _475  and  _478
REMARK  200  A    between atoms: _478  and  _479
REMARK  201  A    between atoms: _479  and  _480
REMARK  202  A    between atoms: _485  and  _487
REMARK  203  A    between atoms: _487  and  _488
REMARK  204  A    between atoms: _487  and  _490
REMARK  205  A    between atoms: _490  and  _491
REMARK  206  A    between atoms: _496  and  _497
REMARK  207  A    between atoms: _499  and  _501
REMARK  208  A    between atoms: _501  and  _502
REMARK  209  A    between atoms: _505  and  _507
REMARK  210  A    between atoms: _507  and  _508
REMARK  211  A    between atoms: _507  and  _510
REMARK  212  A    between atoms: _510  and  _511
REMARK  213  A    between atoms: _516  and  _517
REMARK  214  A    between atoms: _519  and  _521
REMARK  215  A    between atoms: _521  and  _522
REMARK  216  A    between atoms: _521  and  _524
REMARK  217  A    between atoms: _524  and  _525
REMARK  218  A    between atoms: _530  and  _531
REMARK  219  A    between atoms: _533  and  _535
REMARK  220  A    between atoms: _535  and  _536
REMARK  221  A    between atoms: _535  and  _538
REMARK  222  A    between atoms: _538  and  _539
REMARK  223  A    between atoms: _542  and  _544
REMARK  224  A    between atoms: _544  and  _545
REMARK  225  A    between atoms: _544  and  _547
REMARK  226  A    between atoms: _547  and  _548
REMARK  227  A    between atoms: _558  and  _560
REMARK  228  A    between atoms: _560  and  _561
REMARK  229  A    between atoms: _564  and  _566
REMARK  230  A    between atoms: _566  and  _567
REMARK  231  A    between atoms: _570  and  _572
REMARK  232  A    between atoms: _572  and  _573
REMARK  233  A    between atoms: _572  and  _575
REMARK  234  A    between atoms: _575  and  _576
REMARK  235  A    between atoms: _579  and  _581
REMARK  236  A    between atoms: _581  and  _582
REMARK  237  A    between atoms: _581  and  _584
REMARK  238  A    between atoms: _584  and  _585
REMARK  239  A    between atoms: _588  and  _590
REMARK  240  A    between atoms: _590  and  _591
REMARK  241  A    between atoms: _590  and  _593
REMARK  242  A    between atoms: _593  and  _594
REMARK  243  A    between atoms: _597  and  _599
REMARK  244  A    between atoms: _599  and  _600
REMARK  245  A    between atoms: _599  and  _602
REMARK  246  A    between atoms: _602  and  _603
REMARK  247  A    between atoms: _603  and  _604
REMARK  248  A    between atoms: _604  and  _605
REMARK  249  A    between atoms: _605  and  _606
REMARK  250  A    between atoms: _610  and  _612
REMARK  251  A    between atoms: _612  and  _613
REMARK  252  A    between atoms: _612  and  _615
REMARK  253  A    between atoms: _615  and  _616
REMARK  254  A    between atoms: _621  and  _623
REMARK  255  A    between atoms: _623  and  _624
REMARK  256  A    between atoms: _623  and  _626
REMARK  257  A    between atoms: _626  and  _627
REMARK  258  A    between atoms: _627  and  _628
REMARK  259  A    between atoms: _628  and  _629
REMARK  260  A    between atoms: _629  and  _630
REMARK  261  A    between atoms: _634  and  _636
REMARK  262  A    between atoms: _636  and  _637
REMARK  263  A    between atoms: _636  and  _639
REMARK  264  A    between atoms: _639  and  _640
REMARK  265  A    between atoms: _650  and  _652
REMARK  266  A    between atoms: _652  and  _653
REMARK  267  A    between atoms: _656  and  _658
REMARK  268  A    between atoms: _658  and  _659
REMARK  269  A    between atoms: _661  and  _663
REMARK  270  A    between atoms: _663  and  _664
REMARK  271  A    between atoms: _667  and  _669
REMARK  272  A    between atoms: _669  and  _670
REMARK  273  A    between atoms: _673  and  _675
REMARK  274  A    between atoms: _675  and  _676
REMARK  275  A    between atoms: _675  and  _678
REMARK  276  A    between atoms: _678  and  _679
REMARK  277  A    between atoms: _684  and  _685
REMARK  278  A    between atoms: _687  and  _689
REMARK  279  A    between atoms: _689  and  _690
REMARK  280  A    between atoms: _689  and  _692
REMARK  281  A    between atoms: _692  and  _693
REMARK  282  A    between atoms: _698  and  _699
REMARK  283  A    between atoms: _701  and  _703
REMARK  284  A    between atoms: _703  and  _704
REMARK  285  A    between atoms: _703  and  _706
REMARK  286  A    between atoms: _706  and  _707
REMARK  287  A    between atoms: _712  and  _713
REMARK  288  A    between atoms: _715  and  _717
REMARK  289  A    between atoms: _717  and  _718
REMARK  290  A    between atoms: _717  and  _720
REMARK  291  A    between atoms: _720  and  _721
REMARK  292  A    between atoms: _724  and  _726
REMARK  293  A    between atoms: _726  and  _727
REMARK  294  A    between atoms: _729  and  _731
REMARK  295  A    between atoms: _731  and  _732
REMARK  296  A    between atoms: _731  and  _734
REMARK  297  A    between atoms: _734  and  _735
REMARK  298  A    between atoms: _738  and  _740
REMARK  299  A    between atoms: _740  and  _741
REMARK  300  A    between atoms: _740  and  _743
REMARK  301  A    between atoms: _743  and  _744
REMARK  302  A    between atoms: _745  and  _747
REMARK  303  A    between atoms: _747  and  _748
REMARK  304  A    between atoms: _747  and  _750
REMARK  305  A    between atoms: _753  and  _755
REMARK  306  A    between atoms: _755  and  _756
REMARK  307  A    between atoms: _755  and  _758
REMARK  308  A    between atoms: _758  and  _759
REMARK  309  A    between atoms: _759  and  _760
REMARK  310  A    between atoms: _763  and  _765
REMARK  311  A    between atoms: _765  and  _766
REMARK  312  A    between atoms: _765  and  _768
REMARK  313  A    between atoms: _768  and  _769
REMARK  314  A    between atoms: _779  and  _781
REMARK  315  A    between atoms: _781  and  _782
REMARK  316  A    between atoms: _781  and  _784
REMARK  317  A    between atoms: _784  and  _785
REMARK  318  A    between atoms: _788  and  _790
REMARK  319  A    between atoms: _790  and  _791
REMARK  320  A    between atoms: _790  and  _793
REMARK  321  A    between atoms: _793  and  _794
REMARK  322  A    between atoms: _799  and  _800
REMARK                            x       y       z     vdW  Elec       q    Type
REMARK                         _______ _______ _______ _____ _____    ______ ____
ROOT
ATOM      1  CG  TYR A   1      53.587  54.002   8.799  0.00  0.00    -0.020 A 
ATOM      2  CD2 TYR A   1      52.859  54.781   9.699  0.00  0.00    -0.001 A 
ATOM      3  CE2 TYR A   1      51.771  55.552   9.274  0.00  0.00    +0.036 A 
ATOM      4  CZ  TYR A   1      51.403  55.545   7.934  0.00  0.00    +0.134 A 
ATOM      5  CE1 TYR A   1      52.107  54.772   7.016  0.00  0.00    +0.036 A 
ATOM      6  CD1 TYR A   1      53.196  54.008   7.452  0.00  0.00    -0.001 A 
ENDROOT
BRANCH   4   7
ATOM      7  OH  TYR A   1      50.343  56.320   7.507  0.00  0.00    -0.506 OA
ATOM      8  HH  TYR A   1      49.956  56.803   8.280  0.00  0.00    +0.292 HD
ENDBRANCH   4   7
BRANCH   1   9
ATOM      9  CB  TYR A   1      54.764  53.158   9.266  0.00  0.00    +0.051 C 
BRANCH   9  10
ATOM     10  CA  TYR A   1      55.667  53.828  10.315  0.00  0.00    +0.137 C 
BRANCH  10  11
ATOM     11  N   TYR A   1      56.237  55.072   9.801  0.00  0.00    -0.239 NA
ATOM     12  H   TYR A   1      56.095  55.334   8.805  0.00  0.00    +0.142 HD
ENDBRANCH  10  11
BRANCH  10  13
ATOM     13  C   TYR A   1      56.759  52.852  10.754  0.00  0.00    +0.224 C 
ATOM     14  O   TYR A   1      56.616  52.169  11.773  0.00  0.00    -0.287 OA
ENDBRANCH  10  13
ENDBRANCH   9  10
ENDBRANCH   1   9
TORSDOF 5
REMARK  Name = ../refined-set-2016/1fzk/1fzk_pocket.pdb
REMARK  322 active torsions:
REMARK  status: ('A' for Active; 'I' for Inactive)
REMARK    1  A    between atoms: _1  and  _3
REMARK    2  A    between atoms: _3  and  _4
REMARK    3  A    between atoms: _3  and  _6
REMARK    4  A    between atoms: _6  and  _7
REMARK    5  A    between atoms: _10  and  _12
REMARK    6  A    between atoms: _12  and  _13
REMARK    7  A    between atoms: _12  and  _15
REMARK    8  A    between atoms: _15  and  _16
REMARK    9  A    between atoms: _16  and  _17
REMARK   10  A    between atoms: _17  and  _18
REMARK   11  A    between atoms: _27  and  _29
REMARK   12  A    between atoms: _29  and  _30
REMARK   13  A    between atoms: _29  and  _32
REMARK   14  A    between atoms: _32  and  _33
REMARK   15  A    between atoms: _38  and  _39
REMARK   16  A    between atoms: _41  and  _43
REMARK   17  A    between atoms: _43  and  _44
REMARK   18  A    between atoms: _43  and  _46
REMARK   19  A    between atoms: _46  and  _47
REMARK   20  A    between atoms: _53  and  _55
REMARK   21  A    between atoms: _55  and  _56
REMARK   22  A    between atoms: _55  and  _58
REMARK   23  A    between atoms: _61  and  _63
REMARK   24  A    between atoms: _63  and  _64
REMARK   25  A    between atoms: _63  and  _66
REMARK   26  A    between atoms: _66  and  _67
REMARK   27  A    between atoms: _70  and  _72
REMARK   28  A    between atoms: _72  and  _73
REMARK   29  A    between atoms: _72  and  _75
REMARK   30  A    between atoms: _75  and  _76
REMARK   31  A    between atoms: _81  and  _82
REMARK   32  A    between atoms: _84  and  _86
REMARK   33  A    between atoms: _86  and  _87
REMARK   34  A    between atoms: _86  and  _89
REMARK   35  A    between atoms: _89  and  _90
REMARK   36  A    between atoms: _90  and  _91
REMARK   37  A    between atoms: _93  and  _95
REMARK   38  A    between atoms: _95  and  _96
REMARK   39  A    between atoms: _95  and  _98
REMARK   40  A    between atoms: _98  and  _99
REMARK   41  A    between atoms: _99  and  _100
REMARK   42  A    between atoms: _103  and  _105
REMARK   43  A    between atoms: _105  and  _106
REMARK   44  A    between atoms: _105  and  _108
REMARK   45  A    between atoms: _111  and  _113
REMARK   46  A    between atoms: _113  and  _114
REMARK   47  A    between atoms: _116  and  _118
REMARK   48  A    between atoms: _118  and  _119
REMARK   49  A    between atoms: _118  and  _121
REMARK   50  A    between atoms: _124  and  _126
REMARK   51  A    between atoms: _126  and  _127
REMARK   52  A    between atoms: _126  and  _129
REMARK   53  A    between atoms: _129  and  _130
REMARK   54  A    between atoms: _136  and  _138
REMARK   55  A    between atoms: _138  and  _139
REMARK   56  A    between atoms: _138  and  _141
REMARK   57  A    between atoms: _144  and  _146
REMARK   58  A    between atoms: _146  and  _147
REMARK   59  A    between atoms: _146  and  _149
REMARK   60  A    between atoms: _149  and  _150
REMARK   61  A    between atoms: _155  and  _156
REMARK   62  A    between atoms: _158  and  _160
REMARK   63  A    between atoms: _160  and  _161
REMARK   64  A    between atoms: _160  and  _163
REMARK   65  A    between atoms: _163  and  _164
REMARK   66  A    between atoms: _164  and  _165
REMARK   67  A    between atoms: _167  and  _169
REMARK   68  A    between atoms: _169  and  _170
REMARK   69  A    between atoms: _169  and  _172
REMARK   70  A    between atoms: _172  and  _173
REMARK   71  A    between atoms: _173  and  _174
REMARK   72  A    between atoms: _177  and  _179
REMARK   73  A    between atoms: _179  and  _180
REMARK   74  A    between atoms: _179  and  _182
REMARK   75  A    between atoms: _182  and  _183
REMARK   76  A    between atoms: _183  and  _184
REMARK   77  A    between atoms: _187  and  _189
REMARK   78  A    between atoms: _189  and  _190
REMARK   79  A    between atoms: _189  and  _192
REMARK   80  A    between atoms: _192  and  _193
REMARK   81  A    between atoms: _198  and  _199
REMARK   82  A    between atoms: _201  and  _203
REMARK   83  A    between atoms: _203  and  _204
REMARK   84  A    between atoms: _203  and  _206
REMARK   85  A    between atoms: _206  and  _207
REMARK   86  A    between atoms: _207  and  _208
REMARK   87  A    between atoms: _208  and  _209
REMARK   88  A    between atoms: _218  and  _220
REMARK   89  A    between atoms: _220  and  _221
REMARK   90  A    between atoms: _220  and  _223
REMARK   91  A    between atoms: _223  and  _224
REMARK   92  A    between atoms: _224  and  _225
REMARK   93  A    between atoms: _228  and  _230
REMARK   94  A    between atoms: _230  and  _231
REMARK   95  A    between atoms: _230  and  _233
REMARK   96  A    between atoms: _233  and  _234
REMARK   97  A    between atoms: _234  and  _235
REMARK   98  A    between atoms: _240  and  _242
REMARK   99  A    between atoms: _242  and  _243
REMARK  100  A    between atoms: _242  and  _245
REMARK  101  A    between atoms: _245  and  _246
REMARK  102  A    between atoms: _246  and  _247
REMARK  103  A    between atoms: _247  and  _248
REMARK  104  A    between atoms: _248  and  _249
REMARK  105  A    between atoms: _253  and  _255
REMARK  106  A    between atoms: _255  and  _256
REMARK  107  A    between atoms: _259  and  _261
REMARK  108  A    between atoms: _261  and  _262
REMARK  109  A    between atoms: _264  and  _266
REMARK  110  A    between atoms: _266  and  _267
REMARK  111  A    between atoms: _266  and  _269
REMARK  112  A    between atoms: _269  and  _270
REMARK  113  A    between atoms: _275  and  _277
REMARK  114  A    between atoms: _277  and  _278
REMARK  115  A    between atoms: _277  and  _280
REMARK  116  A    between atoms: _280  and  _281
REMARK  117  A    between atoms: _281  and  _282
REMARK  118  A    between atoms: _285  and  _287
REMARK  119  A    between atoms: _287  and  _288
REMARK  120  A    between atoms: _287  and  _290
REMARK  121  A    between atoms: _290  and  _291
REMARK  122  A    between atoms: _291  and  _292
REMARK  123  A    between atoms: _297  and  _299
REMARK  124  A    between atoms: _299  and  _300
REMARK  125  A    between atoms: _299  and  _302
REMARK  126  A    between atoms: _302  and  _303
REMARK  127  A    between atoms: _305  and  _307
REMARK  128  A    between atoms: _307  and  _308
REMARK  129  A    between atoms: _307  and  _310
REMARK  130  A    between atoms: _310  and  _311
REMARK  131  A    between atoms: _317  and  _319
REMARK  132  A    between atoms: _319  and  _320
REMARK  133  A    between atoms: _319  and  _322
REMARK  134  A    between atoms: _325  and  _327
REMARK  135  A    between atoms: _327  and  _328
REMARK  136  A    between atoms: _327  and  _330
REMARK  137  A    between atoms: _330  and  _331
REMARK  138  A    between atoms: _334  and  _336
REMARK  139  A    between atoms: _336  and  _337
REMARK  140  A    between atoms: _336  and  _339
REMARK  141  A    between atoms: _339  and  _340
REMARK  142  A    between atoms: _343  and  _345
REMARK  143  A    between atoms: _345  and  _346
REMARK  144  A    between atoms: _345  and  _348
REMARK  145  A    between atoms: _348  and  _349
REMARK  146  A    between atoms: _352  and  _354
REMARK  147  A    between atoms: _354  and  _355
REMARK  148  A    between atoms: _354  and  _357
REMARK  149  A    between atoms: _357  and  _358
REMARK  150  A    between atoms: _361  and  _363
REMARK  151  A    between atoms: _363  and  _364
REMARK  152  A    between atoms: _363  and  _366
REMARK  153  A    between atoms: _366  and  _367
REMARK  154  A    between atoms: _372  and  _373
REMARK  155  A    between atoms: _375  and  _377
REMARK  156  A    between atoms: _377  and  _378
REMARK  157  A    between atoms: _377  and  _380
REMARK  158  A    between atoms: _380  and  _381
REMARK  159  A    between atoms: _386  and  _387
REMARK  160  A    between atoms: _389  and  _391
REMARK  161  A    between atoms: _391  and  _392
REMARK  162  A    between atoms: _391  and  _394
REMARK  163  A    between atoms: _394  and  _395
REMARK  164  A    between atoms: _398  and  _400
REMARK  165  A    between atoms: _400  and  _401
REMARK  166  A    between atoms: _400  and  _403
REMARK  167  A    between atoms: _403  and  _404
REMARK  168  A    between atoms: _404  and  _405
REMARK  169  A    between atoms: _410  and  _412
REMARK  170  A    between atoms: _412  and  _413
REMARK  171  A    between atoms: _412  and  _415
REMARK  172  A    between atoms: _418  and  _420
REMARK  173  A    between atoms: _420  and  _421
REMARK  174  A    between atoms: _420  and  _423
REMARK  175  A    between atoms: _423  and  _424
REMARK  176  A    between atoms: _427  and  _429
REMARK  177  A    between atoms: _429  and  _430
REMARK  178  A    between atoms: _429  and  _432
REMARK  179  A    between atoms: _432  and  _433
REMARK  180  A    between atoms: _435  and  _437
REMARK  181  A    between atoms: _437  and  _438
REMARK  182  A    between atoms: _440  and  _442
REMARK  183  A    between atoms: _442  and  _443
REMARK  184  A    between atoms: _442  and  _445
REMARK  185  A    between atoms: _445  and  _446
REMARK  186  A    between atoms: _446  and  _744
REMARK  187  A    between atoms: _447  and  _449
REMARK  188  A    between atoms: _449  and  _450
REMARK  189  A    between atoms: _449  and  _452
REMARK  190  A    between atoms: _452  and  _453
REMARK  191  A    between atoms: _458  and  _459
REMARK  192  A    between atoms: _461  and  _463
REMARK  193  A    between atoms: _463  and  _464
REMARK  194  A    between atoms: _463  and  _466
REMARK  195  A    between atoms: _466  and  _467
REMARK  196  A    between atoms: _467  and  _468
REMARK  197  A    between atoms: _473  and  _475
REMARK  198  A    between atoms: _475  and  _476
REMARK  199  A    between atoms: _475  and  _478
REMARK  200  A    between atoms: _478  and  _479
REMARK  201  A    between atoms: _479  and  _480
REMARK  202  A    between atoms: _485  and  _487
REMARK  203  A    between atoms: _487  and  _488
REMARK  204  A    between atoms: _487  and  _490
REMARK  205  A    between atoms: _490  and  _491
REMARK  206  A    between atoms: _496  and  _497
REMARK  207  A    between atoms: _499  and  _501
REMARK  208  A    between atoms: _501  and  _502
REMARK  209  A    between atoms: _505  and  _507
REMARK  210  A    between atoms: _507  and  _508
REMARK  211  A    between atoms: _507  and  _510
REMARK  212  A    between atoms: _510  and  _511
REMARK  213  A    between atoms: _516  and  _517
REMARK  214  A    between atoms: _519  and  _521
REMARK  215  A    between atoms: _521  and  _522
REMARK  216  A    between atoms: _521  and  _524
REMARK  217  A    between atoms: _524  and  _525
REMARK  218  A    between atoms: _530  and  _531
REMARK  219  A    between atoms: _533  and  _535
REMARK  220  A    between atoms: _535  and  _536
REMARK  221  A    between atoms: _535  and  _538
REMARK  222  A    between atoms: _538  and  _539
REMARK  223  A    between atoms: _542  and  _544
REMARK  224  A    between atoms: _544  and  _545
REMARK  225  A    between atoms: _544  and  _547
REMARK  226  A    between atoms: _547  and  _548
REMARK  227  A    between atoms: _558  and  _560
REMARK  228  A    between atoms: _560  and  _561
REMARK  229  A    between atoms: _564  and  _566
REMARK  230  A    between atoms: _566  and  _567
REMARK  231  A    between atoms: _570  and  _572
REMARK  232  A    between atoms: _572  and  _573
REMARK  233  A    between atoms: _572  and  _575
REMARK  234  A    between atoms: _575  and  _576
REMARK  235  A    between atoms: _579  and  _581
REMARK  236  A    between atoms: _581  and  _582
REMARK  237  A    between atoms: _581  and  _584
REMARK  238  A    between atoms: _584  and  _585
REMARK  239  A    between atoms: _588  and  _590
REMARK  240  A    between atoms: _590  and  _591
REMARK  241  A    between atoms: _590  and  _593
REMARK  242  A    between atoms: _593  and  _594
REMARK  243  A    between atoms: _597  and  _599
REMARK  244  A    between atoms: _599  and  _600
REMARK  245  A    between atoms: _599  and  _602
REMARK  246  A    between atoms: _602  and  _603
REMARK  247  A    between atoms: _603  and  _604
REMARK  248  A    between atoms: _604  and  _605
REMARK  249  A    between atoms: _605  and  _606
REMARK  250  A    between atoms: _610  and  _612
REMARK  251  A    between atoms: _612  and  _613
REMARK  252  A    between atoms: _612  and  _615
REMARK  253  A    between atoms: _615  and  _616
REMARK  254  A    between atoms: _621  and  _623
REMARK  255  A    between atoms: _623  and  _624
REMARK  256  A    between atoms: _623  and  _626
REMARK  257  A    between atoms: _626  and  _627
REMARK  258  A    between atoms: _627  and  _628
REMARK  259  A    between atoms: _628  and  _629
REMARK  260  A    between atoms: _629  and  _630
REMARK  261  A    between atoms: _634  and  _636
REMARK  262  A    between atoms: _636  and  _637
REMARK  263  A    between atoms: _636  and  _639
REMARK  264  A    between atoms: _639  and  _640
REMARK  265  A    between atoms: _650  and  _652
REMARK  266  A    between atoms: _652  and  _653
REMARK  267  A    between atoms: _656  and  _658
REMARK  268  A    between atoms: _658  and  _659
REMARK  269  A    between atoms: _661  and  _663
REMARK  270  A    between atoms: _663  and  _664
REMARK  271  A    between atoms: _667  and  _669
REMARK  272  A    between atoms: _669  and  _670
REMARK  273  A    between atoms: _673  and  _675
REMARK  274  A    between atoms: _675  and  _676
REMARK  275  A    between atoms: _675  and  _678
REMARK  276  A    between atoms: _678  and  _679
REMARK  277  A    between atoms: _684  and  _685
REMARK  278  A    between atoms: _687  and  _689
REMARK  279  A    between atoms: _689  and  _690
REMARK  280  A    between atoms: _689  and  _692
REMARK  281  A    between atoms: _692  and  _693
REMARK  282  A    between atoms: _698  and  _699
REMARK  283  A    between atoms: _701  and  _703
REMARK  284  A    between atoms: _703  and  _704
REMARK  285  A    between atoms: _703  and  _706
REMARK  286  A    between atoms: _706  and  _707
REMARK  287  A    between atoms: _712  and  _713
REMARK  288  A    between atoms: _715  and  _717
REMARK  289  A    between atoms: _717  and  _718
REMARK  290  A    between atoms: _717  and  _720
REMARK  291  A    between atoms: _720  and  _721
REMARK  292  A    between atoms: _724  and  _726
REMARK  293  A    between atoms: _726  and  _727
REMARK  294  A    between atoms: _729  and  _731
REMARK  295  A    between atoms: _731  and  _732
REMARK  296  A    between atoms: _731  and  _734
REMARK  297  A    between atoms: _734  and  _735
REMARK  298  A    between atoms: _738  and  _740
REMARK  299  A    between atoms: _740  and  _741
REMARK  300  A    between atoms: _740  and  _743
REMARK  301  A    between atoms: _743  and  _744
REMARK  302  A    between atoms: _745  and  _747
REMARK  303  A    between atoms: _747  and  _748
REMARK  304  A    between atoms: _747  and  _750
REMARK  305  A    between atoms: _753  and  _755
REMARK  306  A    between atoms: _755  and  _756
REMARK  307  A    between atoms: _755  and  _758
REMARK  308  A    between atoms: _758  and  _759
REMARK  309  A    between atoms: _759  and  _760
REMARK  310  A    between atoms: _763  and  _765
REMARK  311  A    between atoms: _765  and  _766
REMARK  312  A    between atoms: _765  and  _768
REMARK  313  A    between atoms: _768  and  _769
REMARK  314  A    between atoms: _779  and  _781
REMARK  315  A    between atoms: _781  and  _782
REMARK  316  A    between atoms: _781  and  _784
REMARK  317  A    between atoms: _784  and  _785
REMARK  318  A    between atoms: _788  and  _790
REMARK  319  A    between atoms: _790  and  _791
REMARK  320  A    between atoms: _790  and  _793
REMARK  321  A    between atoms: _793  and  _794
REMARK  322  A    between atoms: _799  and  _800
REMARK                            x       y       z     vdW  Elec       q    Type
REMARK                         _______ _______ _______ _____ _____    ______ ____
ROOT
ATOM      1  O   HOH     1      45.034  51.645  -4.292  0.00  0.00    +0.000 OA
ENDROOT
TORSDOF 0
REMARK  Name = ../refined-set-2016/1fzk/1fzk_pocket.pdb
REMARK  322 active torsions:
REMARK  status: ('A' for Active; 'I' for Inactive)
REMARK    1  A    between atoms: _1  and  _3
REMARK    2  A    between atoms: _3  and  _4
REMARK    3  A    between atoms: _3  and  _6
REMARK    4  A    between atoms: _6  and  _7
REMARK    5  A    between atoms: _10  and  _12
REMARK    6  A    between atoms: _12  and  _13
REMARK    7  A    between atoms: _12  and  _15
REMARK    8  A    between atoms: _15  and  _16
REMARK    9  A    between atoms: _16  and  _17
REMARK   10  A    between atoms: _17  and  _18
REMARK   11  A    between atoms: _27  and  _29
REMARK   12  A    between atoms: _29  and  _30
REMARK   13  A    between atoms: _29  and  _32
REMARK   14  A    between atoms: _32  and  _33
REMARK   15  A    between atoms: _38  and  _39
REMARK   16  A    between atoms: _41  and  _43
REMARK   17  A    between atoms: _43  and  _44
REMARK   18  A    between atoms: _43  and  _46
REMARK   19  A    between atoms: _46  and  _47
REMARK   20  A    between atoms: _53  and  _55
REMARK   21  A    between atoms: _55  and  _56
REMARK   22  A    between atoms: _55  and  _58
REMARK   23  A    between atoms: _61  and  _63
REMARK   24  A    between atoms: _63  and  _64
REMARK   25  A    between atoms: _63  and  _66
REMARK   26  A    between atoms: _66  and  _67
REMARK   27  A    between atoms: _70  and  _72
REMARK   28  A    between atoms: _72  and  _73
REMARK   29  A    between atoms: _72  and  _75
REMARK   30  A    between atoms: _75  and  _76
REMARK   31  A    between atoms: _81  and  _82
REMARK   32  A    between atoms: _84  and  _86
REMARK   33  A    between atoms: _86  and  _87
REMARK   34  A    between atoms: _86  and  _89
REMARK   35  A    between atoms: _89  and  _90
REMARK   36  A    between atoms: _90  and  _91
REMARK   37  A    between atoms: _93  and  _95
REMARK   38  A    between atoms: _95  and  _96
REMARK   39  A    between atoms: _95  and  _98
REMARK   40  A    between atoms: _98  and  _99
REMARK   41  A    between atoms: _99  and  _100
REMARK   42  A    between atoms: _103  and  _105
REMARK   43  A    between atoms: _105  and  _106
REMARK   44  A    between atoms: _105  and  _108
REMARK   45  A    between atoms: _111  and  _113
REMARK   46  A    between atoms: _113  and  _114
REMARK   47  A    between atoms: _116  and  _118
REMARK   48  A    between atoms: _118  and  _119
REMARK   49  A    between atoms: _118  and  _121
REMARK   50  A    between atoms: _124  and  _126
REMARK   51  A    between atoms: _126  and  _127
REMARK   52  A    between atoms: _126  and  _129
REMARK   53  A    between atoms: _129  and  _130
REMARK   54  A    between atoms: _136  and  _138
REMARK   55  A    between atoms: _138  and  _139
REMARK   56  A    between atoms: _138  and  _141
REMARK   57  A    between atoms: _144  and  _146
REMARK   58  A    between atoms: _146  and  _147
REMARK   59  A    between atoms: _146  and  _149
REMARK   60  A    between atoms: _149  and  _150
REMARK   61  A    between atoms: _155  and  _156
REMARK   62  A    between atoms: _158  and  _160
REMARK   63  A    between atoms: _160  and  _161
REMARK   64  A    between atoms: _160  and  _163
REMARK   65  A    between atoms: _163  and  _164
REMARK   66  A    between atoms: _164  and  _165
REMARK   67  A    between atoms: _167  and  _169
REMARK   68  A    between atoms: _169  and  _170
REMARK   69  A    between atoms: _169  and  _172
REMARK   70  A    between atoms: _172  and  _173
REMARK   71  A    between atoms: _173  and  _174
REMARK   72  A    between atoms: _177  and  _179
REMARK   73  A    between atoms: _179  and  _180
REMARK   74  A    between atoms: _179  and  _182
REMARK   75  A    between atoms: _182  and  _183
REMARK   76  A    between atoms: _183  and  _184
REMARK   77  A    between atoms: _187  and  _189
REMARK   78  A    between atoms: _189  and  _190
REMARK   79  A    between atoms: _189  and  _192
REMARK   80  A    between atoms: _192  and  _193
REMARK   81  A    between atoms: _198  and  _199
REMARK   82  A    between atoms: _201  and  _203
REMARK   83  A    between atoms: _203  and  _204
REMARK   84  A    between atoms: _203  and  _206
REMARK   85  A    between atoms: _206  and  _207
REMARK   86  A    between atoms: _207  and  _208
REMARK   87  A    between atoms: _208  and  _209
REMARK   88  A    between atoms: _218  and  _220
REMARK   89  A    between atoms: _220  and  _221
REMARK   90  A    between atoms: _220  and  _223
REMARK   91  A    between atoms: _223  and  _224
REMARK   92  A    between atoms: _224  and  _225
REMARK   93  A    between atoms: _228  and  _230
REMARK   94  A    between atoms: _230  and  _231
REMARK   95  A    between atoms: _230  and  _233
REMARK   96  A    between atoms: _233  and  _234
REMARK   97  A    between atoms: _234  and  _235
REMARK   98  A    between atoms: _240  and  _242
REMARK   99  A    between atoms: _242  and  _243
REMARK  100  A    between atoms: _242  and  _245
REMARK  101  A    between atoms: _245  and  _246
REMARK  102  A    between atoms: _246  and  _247
REMARK  103  A    between atoms: _247  and  _248
REMARK  104  A    between atoms: _248  and  _249
REMARK  105  A    between atoms: _253  and  _255
REMARK  106  A    between atoms: _255  and  _256
REMARK  107  A    between atoms: _259  and  _261
REMARK  108  A    between atoms: _261  and  _262
REMARK  109  A    between atoms: _264  and  _266
REMARK  110  A    between atoms: _266  and  _267
REMARK  111  A    between atoms: _266  and  _269
REMARK  112  A    between atoms: _269  and  _270
REMARK  113  A    between atoms: _275  and  _277
REMARK  114  A    between atoms: _277  and  _278
REMARK  115  A    between atoms: _277  and  _280
REMARK  116  A    between atoms: _280  and  _281
REMARK  117  A    between atoms: _281  and  _282
REMARK  118  A    between atoms: _285  and  _287
REMARK  119  A    between atoms: _287  and  _288
REMARK  120  A    between atoms: _287  and  _290
REMARK  121  A    between atoms: _290  and  _291
REMARK  122  A    between atoms: _291  and  _292
REMARK  123  A    between atoms: _297  and  _299
REMARK  124  A    between atoms: _299  and  _300
REMARK  125  A    between atoms: _299  and  _302
REMARK  126  A    between atoms: _302  and  _303
REMARK  127  A    between atoms: _305  and  _307
REMARK  128  A    between atoms: _307  and  _308
REMARK  129  A    between atoms: _307  and  _310
REMARK  130  A    between atoms: _310  and  _311
REMARK  131  A    between atoms: _317  and  _319
REMARK  132  A    between atoms: _319  and  _320
REMARK  133  A    between atoms: _319  and  _322
REMARK  134  A    between atoms: _325  and  _327
REMARK  135  A    between atoms: _327  and  _328
REMARK  136  A    between atoms: _327  and  _330
REMARK  137  A    between atoms: _330  and  _331
REMARK  138  A    between atoms: _334  and  _336
REMARK  139  A    between atoms: _336  and  _337
REMARK  140  A    between atoms: _336  and  _339
REMARK  141  A    between atoms: _339  and  _340
REMARK  142  A    between atoms: _343  and  _345
REMARK  143  A    between atoms: _345  and  _346
REMARK  144  A    between atoms: _345  and  _348
REMARK  145  A    between atoms: _348  and  _349
REMARK  146  A    between atoms: _352  and  _354
REMARK  147  A    between atoms: _354  and  _355
REMARK  148  A    between atoms: _354  and  _357
REMARK  149  A    between atoms: _357  and  _358
REMARK  150  A    between atoms: _361  and  _363
REMARK  151  A    between atoms: _363  and  _364
REMARK  152  A    between atoms: _363  and  _366
REMARK  153  A    between atoms: _366  and  _367
REMARK  154  A    between atoms: _372  and  _373
REMARK  155  A    between atoms: _375  and  _377
REMARK  156  A    between atoms: _377  and  _378
REMARK  157  A    between atoms: _377  and  _380
REMARK  158  A    between atoms: _380  and  _381
REMARK  159  A    between atoms: _386  and  _387
REMARK  160  A    between atoms: _389  and  _391
REMARK  161  A    between atoms: _391  and  _392
REMARK  162  A    between atoms: _391  and  _394
REMARK  163  A    between atoms: _394  and  _395
REMARK  164  A    between atoms: _398  and  _400
REMARK  165  A    between atoms: _400  and  _401
REMARK  166  A    between atoms: _400  and  _403
REMARK  167  A    between atoms: _403  and  _404
REMARK  168  A    between atoms: _404  and  _405
REMARK  169  A    between atoms: _410  and  _412
REMARK  170  A    between atoms: _412  and  _413
REMARK  171  A    between atoms: _412  and  _415
REMARK  172  A    between atoms: _418  and  _420
REMARK  173  A    between atoms: _420  and  _421
REMARK  174  A    between atoms: _420  and  _423
REMARK  175  A    between atoms: _423  and  _424
REMARK  176  A    between atoms: _427  and  _429
REMARK  177  A    between atoms: _429  and  _430
REMARK  178  A    between atoms: _429  and  _432
REMARK  179  A    between atoms: _432  and  _433
REMARK  180  A    between atoms: _435  and  _437
REMARK  181  A    between atoms: _437  and  _438
REMARK  182  A    between atoms: _440  and  _442
REMARK  183  A    between atoms: _442  and  _443
REMARK  184  A    between atoms: _442  and  _445
REMARK  185  A    between atoms: _445  and  _446
REMARK  186  A    between atoms: _446  and  _744
REMARK  187  A    between atoms: _447  and  _449
REMARK  188  A    between atoms: _449  and  _450
REMARK  189  A    between atoms: _449  and  _452
REMARK  190  A    between atoms: _452  and  _453
REMARK  191  A    between atoms: _458  and  _459
REMARK  192  A    between atoms: _461  and  _463
REMARK  193  A    between atoms: _463  and  _464
REMARK  194  A    between atoms: _463  and  _466
REMARK  195  A    between atoms: _466  and  _467
REMARK  196  A    between atoms: _467  and  _468
REMARK  197  A    between atoms: _473  and  _475
REMARK  198  A    between atoms: _475  and  _476
REMARK  199  A    between atoms: _475  and  _478
REMARK  200  A    between atoms: _478  and  _479
REMARK  201  A    between atoms: _479  and  _480
REMARK  202  A    between atoms: _485  and  _487
REMARK  203  A    between atoms: _487  and  _488
REMARK  204  A    between atoms: _487  and  _490
REMARK  205  A    between atoms: _490  and  _491
REMARK  206  A    between atoms: _496  and  _497
REMARK  207  A    between atoms: _499  and  _501
REMARK  208  A    between atoms: _501  and  _502
REMARK  209  A    between atoms: _505  and  _507
REMARK  210  A    between atoms: _507  and  _508
REMARK  211  A    between atoms: _507  and  _510
REMARK  212  A    between atoms: _510  and  _511
REMARK  213  A    between atoms: _516  and  _517
REMARK  214  A    between atoms: _519  and  _521
REMARK  215  A    between atoms: _521  and  _522
REMARK  216  A    between atoms: _521  and  _524
REMARK  217  A    between atoms: _524  and  _525
REMARK  218  A    between atoms: _530  and  _531
REMARK  219  A    between atoms: _533  and  _535
REMARK  220  A    between atoms: _535  and  _536
REMARK  221  A    between atoms: _535  and  _538
REMARK  222  A    between atoms: _538  and  _539
REMARK  223  A    between atoms: _542  and  _544
REMARK  224  A    between atoms: _544  and  _545
REMARK  225  A    between atoms: _544  and  _547
REMARK  226  A    between atoms: _547  and  _548
REMARK  227  A    between atoms: _558  and  _560
REMARK  228  A    between atoms: _560  and  _561
REMARK  229  A    between atoms: _564  and  _566
REMARK  230  A    between atoms: _566  and  _567
REMARK  231  A    between atoms: _570  and  _572
REMARK  232  A    between atoms: _572  and  _573
REMARK  233  A    between atoms: _572  and  _575
REMARK  234  A    between atoms: _575  and  _576
REMARK  235  A    between atoms: _579  and  _581
REMARK  236  A    between atoms: _581  and  _582
REMARK  237  A    between atoms: _581  and  _584
REMARK  238  A    between atoms: _584  and  _585
REMARK  239  A    between atoms: _588  and  _590
REMARK  240  A    between atoms: _590  and  _591
REMARK  241  A    between atoms: _590  and  _593
REMARK  242  A    between atoms: _593  and  _594
REMARK  243  A    between atoms: _597  and  _599
REMARK  244  A    between atoms: _599  and  _600
REMARK  245  A    between atoms: _599  and  _602
REMARK  246  A    between atoms: _602  and  _603
REMARK  247  A    between atoms: _603  and  _604
REMARK  248  A    between atoms: _604  and  _605
REMARK  249  A    between atoms: _605  and  _606
REMARK  250  A    between atoms: _610  and  _612
REMARK  251  A    between atoms: _612  and  _613
REMARK  252  A    between atoms: _612  and  _615
REMARK  253  A    between atoms: _615  and  _616
REMARK  254  A    between atoms: _621  and  _623
REMARK  255  A    between atoms: _623  and  _624
REMARK  256  A    between atoms: _623  and  _626
REMARK  257  A    between atoms: _626  and  _627
REMARK  258  A    between atoms: _627  and  _628
REMARK  259  A    between atoms: _628  and  _629
REMARK  260  A    between atoms: _629  and  _630
REMARK  261  A    between atoms: _634  and  _636
REMARK  262  A    between atoms: _636  and  _637
REMARK  263  A    between atoms: _636  and  _639
REMARK  264  A    between atoms: _639  and  _640
REMARK  265  A    between atoms: _650  and  _652
REMARK  266  A    between atoms: _652  and  _653
REMARK  267  A    between atoms: _656  and  _658
REMARK  268  A    between atoms: _658  and  _659
REMARK  269  A    between atoms: _661  and  _663
REMARK  270  A    between atoms: _663  and  _664
REMARK  271  A    between atoms: _667  and  _669
REMARK  272  A    between atoms: _669  and  _670
REMARK  273  A    between atoms: _673  and  _675
REMARK  274  A    between atoms: _675  and  _676
REMARK  275  A    between atoms: _675  and  _678
REMARK  276  A    between atoms: _678  and  _679
REMARK  277  A    between atoms: _684  and  _685
REMARK  278  A    between atoms: _687  and  _689
REMARK  279  A    between atoms: _689  and  _690
REMARK  280  A    between atoms: _689  and  _692
REMARK  281  A    between atoms: _692  and  _693
REMARK  282  A    between atoms: _698  and  _699
REMARK  283  A    between atoms: _701  and  _703
REMARK  284  A    between atoms: _703  and  _704
REMARK  285  A    between atoms: _703  and  _706
REMARK  286  A    between atoms: _706  and  _707
REMARK  287  A    between atoms: _712  and  _713
REMARK  288  A    between atoms: _715  and  _717
REMARK  289  A    between atoms: _717  and  _718
REMARK  290  A    between atoms: _717  and  _720
REMARK  291  A    between atoms: _720  and  _721
REMARK  292  A    between atoms: _724  and  _726
REMARK  293  A    between atoms: _726  and  _727
REMARK  294  A    between atoms: _729  and  _731
REMARK  295  A    between atoms: _731  and  _732
REMARK  296  A    between atoms: _731  and  _734
REMARK  297  A    between atoms: _734  and  _735
REMARK  298  A    between atoms: _738  and  _740
REMARK  299  A    between atoms: _740  and  _741
REMARK  300  A    between atoms: _740  and  _743
REMARK  301  A    between atoms: _743  and  _744
REMARK  302  A    between atoms: _745  and  _747
REMARK  303  A    between atoms: _747  and  _748
REMARK  304  A    between atoms: _747  and  _750
REMARK  305  A    between atoms: _753  and  _755
REMARK  306  A    between atoms: _755  and  _756
REMARK  307  A    between atoms: _755  and  _758
REMARK  308  A    between atoms: _758  and  _759
REMARK  309  A    between atoms: _759  and  _760
REMARK  310  A    between atoms: _763  and  _765
REMARK  311  A    between atoms: _765  and  _766
REMARK  312  A    between atoms: _765  and  _768
REMARK  313  A    between atoms: _768  and  _769
REMARK  314  A    between atoms: _779  and  _781
REMARK  315  A    between atoms: _781  and  _782
REMARK  316  A    between atoms: _781  and  _784
REMARK  317  A    between atoms: _784  and  _785
REMARK  318  A    between atoms: _788  and  _790
REMARK  319  A    between atoms: _790  and  _791
REMARK  320  A    between atoms: _790  and  _793
REMARK  321  A    between atoms: _793  and  _794
REMARK  322  A    between atoms: _799  and  _800
REMARK                            x       y       z     vdW  Elec       q    Type
REMARK                         _______ _______ _______ _____ _____    ______ ____
ROOT
ATOM      1  O   HOH     1      46.490  55.053   6.260  0.00  0.00    +0.000 OA
ENDROOT
TORSDOF 0
REMARK  Name = ../refined-set-2016/1fzk/1fzk_pocket.pdb
REMARK  322 active torsions:
REMARK  status: ('A' for Active; 'I' for Inactive)
REMARK    1  A    between atoms: _1  and  _3
REMARK    2  A    between atoms: _3  and  _4
REMARK    3  A    between atoms: _3  and  _6
REMARK    4  A    between atoms: _6  and  _7
REMARK    5  A    between atoms: _10  and  _12
REMARK    6  A    between atoms: _12  and  _13
REMARK    7  A    between atoms: _12  and  _15
REMARK    8  A    between atoms: _15  and  _16
REMARK    9  A    between atoms: _16  and  _17
REMARK   10  A    between atoms: _17  and  _18
REMARK   11  A    between atoms: _27  and  _29
REMARK   12  A    between atoms: _29  and  _30
REMARK   13  A    between atoms: _29  and  _32
REMARK   14  A    between atoms: _32  and  _33
REMARK   15  A    between atoms: _38  and  _39
REMARK   16  A    between atoms: _41  and  _43
REMARK   17  A    between atoms: _43  and  _44
REMARK   18  A    between atoms: _43  and  _46
REMARK   19  A    between atoms: _46  and  _47
REMARK   20  A    between atoms: _53  and  _55
REMARK   21  A    between atoms: _55  and  _56
REMARK   22  A    between atoms: _55  and  _58
REMARK   23  A    between atoms: _61  and  _63
REMARK   24  A    between atoms: _63  and  _64
REMARK   25  A    between atoms: _63  and  _66
REMARK   26  A    between atoms: _66  and  _67
REMARK   27  A    between atoms: _70  and  _72
REMARK   28  A    between atoms: _72  and  _73
REMARK   29  A    between atoms: _72  and  _75
REMARK   30  A    between atoms: _75  and  _76
REMARK   31  A    between atoms: _81  and  _82
REMARK   32  A    between atoms: _84  and  _86
REMARK   33  A    between atoms: _86  and  _87
REMARK   34  A    between atoms: _86  and  _89
REMARK   35  A    between atoms: _89  and  _90
REMARK   36  A    between atoms: _90  and  _91
REMARK   37  A    between atoms: _93  and  _95
REMARK   38  A    between atoms: _95  and  _96
REMARK   39  A    between atoms: _95  and  _98
REMARK   40  A    between atoms: _98  and  _99
REMARK   41  A    between atoms: _99  and  _100
REMARK   42  A    between atoms: _103  and  _105
REMARK   43  A    between atoms: _105  and  _106
REMARK   44  A    between atoms: _105  and  _108
REMARK   45  A    between atoms: _111  and  _113
REMARK   46  A    between atoms: _113  and  _114
REMARK   47  A    between atoms: _116  and  _118
REMARK   48  A    between atoms: _118  and  _119
REMARK   49  A    between atoms: _118  and  _121
REMARK   50  A    between atoms: _124  and  _126
REMARK   51  A    between atoms: _126  and  _127
REMARK   52  A    between atoms: _126  and  _129
REMARK   53  A    between atoms: _129  and  _130
REMARK   54  A    between atoms: _136  and  _138
REMARK   55  A    between atoms: _138  and  _139
REMARK   56  A    between atoms: _138  and  _141
REMARK   57  A    between atoms: _144  and  _146
REMARK   58  A    between atoms: _146  and  _147
REMARK   59  A    between atoms: _146  and  _149
REMARK   60  A    between atoms: _149  and  _150
REMARK   61  A    between atoms: _155  and  _156
REMARK   62  A    between atoms: _158  and  _160
REMARK   63  A    between atoms: _160  and  _161
REMARK   64  A    between atoms: _160  and  _163
REMARK   65  A    between atoms: _163  and  _164
REMARK   66  A    between atoms: _164  and  _165
REMARK   67  A    between atoms: _167  and  _169
REMARK   68  A    between atoms: _169  and  _170
REMARK   69  A    between atoms: _169  and  _172
REMARK   70  A    between atoms: _172  and  _173
REMARK   71  A    between atoms: _173  and  _174
REMARK   72  A    between atoms: _177  and  _179
REMARK   73  A    between atoms: _179  and  _180
REMARK   74  A    between atoms: _179  and  _182
REMARK   75  A    between atoms: _182  and  _183
REMARK   76  A    between atoms: _183  and  _184
REMARK   77  A    between atoms: _187  and  _189
REMARK   78  A    between atoms: _189  and  _190
REMARK   79  A    between atoms: _189  and  _192
REMARK   80  A    between atoms: _192  and  _193
REMARK   81  A    between atoms: _198  and  _199
REMARK   82  A    between atoms: _201  and  _203
REMARK   83  A    between atoms: _203  and  _204
REMARK   84  A    between atoms: _203  and  _206
REMARK   85  A    between atoms: _206  and  _207
REMARK   86  A    between atoms: _207  and  _208
REMARK   87  A    between atoms: _208  and  _209
REMARK   88  A    between atoms: _218  and  _220
REMARK   89  A    between atoms: _220  and  _221
REMARK   90  A    between atoms: _220  and  _223
REMARK   91  A    between atoms: _223  and  _224
REMARK   92  A    between atoms: _224  and  _225
REMARK   93  A    between atoms: _228  and  _230
REMARK   94  A    between atoms: _230  and  _231
REMARK   95  A    between atoms: _230  and  _233
REMARK   96  A    between atoms: _233  and  _234
REMARK   97  A    between atoms: _234  and  _235
REMARK   98  A    between atoms: _240  and  _242
REMARK   99  A    between atoms: _242  and  _243
REMARK  100  A    between atoms: _242  and  _245
REMARK  101  A    between atoms: _245  and  _246
REMARK  102  A    between atoms: _246  and  _247
REMARK  103  A    between atoms: _247  and  _248
REMARK  104  A    between atoms: _248  and  _249
REMARK  105  A    between atoms: _253  and  _255
REMARK  106  A    between atoms: _255  and  _256
REMARK  107  A    between atoms: _259  and  _261
REMARK  108  A    between atoms: _261  and  _262
REMARK  109  A    between atoms: _264  and  _266
REMARK  110  A    between atoms: _266  and  _267
REMARK  111  A    between atoms: _266  and  _269
REMARK  112  A    between atoms: _269  and  _270
REMARK  113  A    between atoms: _275  and  _277
REMARK  114  A    between atoms: _277  and  _278
REMARK  115  A    between atoms: _277  and  _280
REMARK  116  A    between atoms: _280  and  _281
REMARK  117  A    between atoms: _281  and  _282
REMARK  118  A    between atoms: _285  and  _287
REMARK  119  A    between atoms: _287  and  _288
REMARK  120  A    between atoms: _287  and  _290
REMARK  121  A    between atoms: _290  and  _291
REMARK  122  A    between atoms: _291  and  _292
REMARK  123  A    between atoms: _297  and  _299
REMARK  124  A    between atoms: _299  and  _300
REMARK  125  A    between atoms: _299  and  _302
REMARK  126  A    between atoms: _302  and  _303
REMARK  127  A    between atoms: _305  and  _307
REMARK  128  A    between atoms: _307  and  _308
REMARK  129  A    between atoms: _307  and  _310
REMARK  130  A    between atoms: _310  and  _311
REMARK  131  A    between atoms: _317  and  _319
REMARK  132  A    between atoms: _319  and  _320
REMARK  133  A    between atoms: _319  and  _322
REMARK  134  A    between atoms: _325  and  _327
REMARK  135  A    between atoms: _327  and  _328
REMARK  136  A    between atoms: _327  and  _330
REMARK  137  A    between atoms: _330  and  _331
REMARK  138  A    between atoms: _334  and  _336
REMARK  139  A    between atoms: _336  and  _337
REMARK  140  A    between atoms: _336  and  _339
REMARK  141  A    between atoms: _339  and  _340
REMARK  142  A    between atoms: _343  and  _345
REMARK  143  A    between atoms: _345  and  _346
REMARK  144  A    between atoms: _345  and  _348
REMARK  145  A    between atoms: _348  and  _349
REMARK  146  A    between atoms: _352  and  _354
REMARK  147  A    between atoms: _354  and  _355
REMARK  148  A    between atoms: _354  and  _357
REMARK  149  A    between atoms: _357  and  _358
REMARK  150  A    between atoms: _361  and  _363
REMARK  151  A    between atoms: _363  and  _364
REMARK  152  A    between atoms: _363  and  _366
REMARK  153  A    between atoms: _366  and  _367
REMARK  154  A    between atoms: _372  and  _373
REMARK  155  A    between atoms: _375  and  _377
REMARK  156  A    between atoms: _377  and  _378
REMARK  157  A    between atoms: _377  and  _380
REMARK  158  A    between atoms: _380  and  _381
REMARK  159  A    between atoms: _386  and  _387
REMARK  160  A    between atoms: _389  and  _391
REMARK  161  A    between atoms: _391  and  _392
REMARK  162  A    between atoms: _391  and  _394
REMARK  163  A    between atoms: _394  and  _395
REMARK  164  A    between atoms: _398  and  _400
REMARK  165  A    between atoms: _400  and  _401
REMARK  166  A    between atoms: _400  and  _403
REMARK  167  A    between atoms: _403  and  _404
REMARK  168  A    between atoms: _404  and  _405
REMARK  169  A    between atoms: _410  and  _412
REMARK  170  A    between atoms: _412  and  _413
REMARK  171  A    between atoms: _412  and  _415
REMARK  172  A    between atoms: _418  and  _420
REMARK  173  A    between atoms: _420  and  _421
REMARK  174  A    between atoms: _420  and  _423
REMARK  175  A    between atoms: _423  and  _424
REMARK  176  A    between atoms: _427  and  _429
REMARK  177  A    between atoms: _429  and  _430
REMARK  178  A    between atoms: _429  and  _432
REMARK  179  A    between atoms: _432  and  _433
REMARK  180  A    between atoms: _435  and  _437
REMARK  181  A    between atoms: _437  and  _438
REMARK  182  A    between atoms: _440  and  _442
REMARK  183  A    between atoms: _442  and  _443
REMARK  184  A    between atoms: _442  and  _445
REMARK  185  A    between atoms: _445  and  _446
REMARK  186  A    between atoms: _446  and  _744
REMARK  187  A    between atoms: _447  and  _449
REMARK  188  A    between atoms: _449  and  _450
REMARK  189  A    between atoms: _449  and  _452
REMARK  190  A    between atoms: _452  and  _453
REMARK  191  A    between atoms: _458  and  _459
REMARK  192  A    between atoms: _461  and  _463
REMARK  193  A    between atoms: _463  and  _464
REMARK  194  A    between atoms: _463  and  _466
REMARK  195  A    between atoms: _466  and  _467
REMARK  196  A    between atoms: _467  and  _468
REMARK  197  A    between atoms: _473  and  _475
REMARK  198  A    between atoms: _475  and  _476
REMARK  199  A    between atoms: _475  and  _478
REMARK  200  A    between atoms: _478  and  _479
REMARK  201  A    between atoms: _479  and  _480
REMARK  202  A    between atoms: _485  and  _487
REMARK  203  A    between atoms: _487  and  _488
REMARK  204  A    between atoms: _487  and  _490
REMARK  205  A    between atoms: _490  and  _491
REMARK  206  A    between atoms: _496  and  _497
REMARK  207  A    between atoms: _499  and  _501
REMARK  208  A    between atoms: _501  and  _502
REMARK  209  A    between atoms: _505  and  _507
REMARK  210  A    between atoms: _507  and  _508
REMARK  211  A    between atoms: _507  and  _510
REMARK  212  A    between atoms: _510  and  _511
REMARK  213  A    between atoms: _516  and  _517
REMARK  214  A    between atoms: _519  and  _521
REMARK  215  A    between atoms: _521  and  _522
REMARK  216  A    between atoms: _521  and  _524
REMARK  217  A    between atoms: _524  and  _525
REMARK  218  A    between atoms: _530  and  _531
REMARK  219  A    between atoms: _533  and  _535
REMARK  220  A    between atoms: _535  and  _536
REMARK  221  A    between atoms: _535  and  _538
REMARK  222  A    between atoms: _538  and  _539
REMARK  223  A    between atoms: _542  and  _544
REMARK  224  A    between atoms: _544  and  _545
REMARK  225  A    between atoms: _544  and  _547
REMARK  226  A    between atoms: _547  and  _548
REMARK  227  A    between atoms: _558  and  _560
REMARK  228  A    between atoms: _560  and  _561
REMARK  229  A    between atoms: _564  and  _566
REMARK  230  A    between atoms: _566  and  _567
REMARK  231  A    between atoms: _570  and  _572
REMARK  232  A    between atoms: _572  and  _573
REMARK  233  A    between atoms: _572  and  _575
REMARK  234  A    between atoms: _575  and  _576
REMARK  235  A    between atoms: _579  and  _581
REMARK  236  A    between atoms: _581  and  _582
REMARK  237  A    between atoms: _581  and  _584
REMARK  238  A    between atoms: _584  and  _585
REMARK  239  A    between atoms: _588  and  _590
REMARK  240  A    between atoms: _590  and  _591
REMARK  241  A    between atoms: _590  and  _593
REMARK  242  A    between atoms: _593  and  _594
REMARK  243  A    between atoms: _597  and  _599
REMARK  244  A    between atoms: _599  and  _600
REMARK  245  A    between atoms: _599  and  _602
REMARK  246  A    between atoms: _602  and  _603
REMARK  247  A    between atoms: _603  and  _604
REMARK  248  A    between atoms: _604  and  _605
REMARK  249  A    between atoms: _605  and  _606
REMARK  250  A    between atoms: _610  and  _612
REMARK  251  A    between atoms: _612  and  _613
REMARK  252  A    between atoms: _612  and  _615
REMARK  253  A    between atoms: _615  and  _616
REMARK  254  A    between atoms: _621  and  _623
REMARK  255  A    between atoms: _623  and  _624
REMARK  256  A    between atoms: _623  and  _626
REMARK  257  A    between atoms: _626  and  _627
REMARK  258  A    between atoms: _627  and  _628
REMARK  259  A    between atoms: _628  and  _629
REMARK  260  A    between atoms: _629  and  _630
REMARK  261  A    between atoms: _634  and  _636
REMARK  262  A    between atoms: _636  and  _637
REMARK  263  A    between atoms: _636  and  _639
REMARK  264  A    between atoms: _639  and  _640
REMARK  265  A    between atoms: _650  and  _652
REMARK  266  A    between atoms: _652  and  _653
REMARK  267  A    between atoms: _656  and  _658
REMARK  268  A    between atoms: _658  and  _659
REMARK  269  A    between atoms: _661  and  _663
REMARK  270  A    between atoms: _663  and  _664
REMARK  271  A    between atoms: _667  and  _669
REMARK  272  A    between atoms: _669  and  _670
REMARK  273  A    between atoms: _673  and  _675
REMARK  274  A    between atoms: _675  and  _676
REMARK  275  A    between atoms: _675  and  _678
REMARK  276  A    between atoms: _678  and  _679
REMARK  277  A    between atoms: _684  and  _685
REMARK  278  A    between atoms: _687  and  _689
REMARK  279  A    between atoms: _689  and  _690
REMARK  280  A    between atoms: _689  and  _692
REMARK  281  A    between atoms: _692  and  _693
REMARK  282  A    between atoms: _698  and  _699
REMARK  283  A    between atoms: _701  and  _703
REMARK  284  A    between atoms: _703  and  _704
REMARK  285  A    between atoms: _703  and  _706
REMARK  286  A    between atoms: _706  and  _707
REMARK  287  A    between atoms: _712  and  _713
REMARK  288  A    between atoms: _715  and  _717
REMARK  289  A    between atoms: _717  and  _718
REMARK  290  A    between atoms: _717  and  _720
REMARK  291  A    between atoms: _720  and  _721
REMARK  292  A    between atoms: _724  and  _726
REMARK  293  A    between atoms: _726  and  _727
REMARK  294  A    between atoms: _729  and  _731
REMARK  295  A    between atoms: _731  and  _732
REMARK  296  A    between atoms: _731  and  _734
REMARK  297  A    between atoms: _734  and  _735
REMARK  298  A    between atoms: _738  and  _740
REMARK  299  A    between atoms: _740  and  _741
REMARK  300  A    between atoms: _740  and  _743
REMARK  301  A    between atoms: _743  and  _744
REMARK  302  A    between atoms: _745  and  _747
REMARK  303  A    between atoms: _747  and  _748
REMARK  304  A    between atoms: _747  and  _750
REMARK  305  A    between atoms: _753  and  _755
REMARK  306  A    between atoms: _755  and  _756
REMARK  307  A    between atoms: _755  and  _758
REMARK  308  A    between atoms: _758  and  _759
REMARK  309  A    between atoms: _759  and  _760
REMARK  310  A    between atoms: _763  and  _765
REMARK  311  A    between atoms: _765  and  _766
REMARK  312  A    between atoms: _765  and  _768
REMARK  313  A    between atoms: _768  and  _769
REMARK  314  A    between atoms: _779  and  _781
REMARK  315  A    between atoms: _781  and  _782
REMARK  316  A    between atoms: _781  and  _784
REMARK  317  A    between atoms: _784  and  _785
REMARK  318  A    between atoms: _788  and  _790
REMARK  319  A    between atoms: _790  and  _791
REMARK  320  A    between atoms: _790  and  _793
REMARK  321  A    between atoms: _793  and  _794
REMARK  322  A    between atoms: _799  and  _800
REMARK                            x       y       z     vdW  Elec       q    Type
REMARK                         _______ _______ _______ _____ _____    ______ ____
ROOT
ATOM      1  O   HOH     1      48.627  61.408 -16.784  0.00  0.00    +0.000 OA
ENDROOT
TORSDOF 0
REMARK  Name = ../refined-set-2016/1fzk/1fzk_pocket.pdb
REMARK  322 active torsions:
REMARK  status: ('A' for Active; 'I' for Inactive)
REMARK    1  A    between atoms: _1  and  _3
REMARK    2  A    between atoms: _3  and  _4
REMARK    3  A    between atoms: _3  and  _6
REMARK    4  A    between atoms: _6  and  _7
REMARK    5  A    between atoms: _10  and  _12
REMARK    6  A    between atoms: _12  and  _13
REMARK    7  A    between atoms: _12  and  _15
REMARK    8  A    between atoms: _15  and  _16
REMARK    9  A    between atoms: _16  and  _17
REMARK   10  A    between atoms: _17  and  _18
REMARK   11  A    between atoms: _27  and  _29
REMARK   12  A    between atoms: _29  and  _30
REMARK   13  A    between atoms: _29  and  _32
REMARK   14  A    between atoms: _32  and  _33
REMARK   15  A    between atoms: _38  and  _39
REMARK   16  A    between atoms: _41  and  _43
REMARK   17  A    between atoms: _43  and  _44
REMARK   18  A    between atoms: _43  and  _46
REMARK   19  A    between atoms: _46  and  _47
REMARK   20  A    between atoms: _53  and  _55
REMARK   21  A    between atoms: _55  and  _56
REMARK   22  A    between atoms: _55  and  _58
REMARK   23  A    between atoms: _61  and  _63
REMARK   24  A    between atoms: _63  and  _64
REMARK   25  A    between atoms: _63  and  _66
REMARK   26  A    between atoms: _66  and  _67
REMARK   27  A    between atoms: _70  and  _72
REMARK   28  A    between atoms: _72  and  _73
REMARK   29  A    between atoms: _72  and  _75
REMARK   30  A    between atoms: _75  and  _76
REMARK   31  A    between atoms: _81  and  _82
REMARK   32  A    between atoms: _84  and  _86
REMARK   33  A    between atoms: _86  and  _87
REMARK   34  A    between atoms: _86  and  _89
REMARK   35  A    between atoms: _89  and  _90
REMARK   36  A    between atoms: _90  and  _91
REMARK   37  A    between atoms: _93  and  _95
REMARK   38  A    between atoms: _95  and  _96
REMARK   39  A    between atoms: _95  and  _98
REMARK   40  A    between atoms: _98  and  _99
REMARK   41  A    between atoms: _99  and  _100
REMARK   42  A    between atoms: _103  and  _105
REMARK   43  A    between atoms: _105  and  _106
REMARK   44  A    between atoms: _105  and  _108
REMARK   45  A    between atoms: _111  and  _113
REMARK   46  A    between atoms: _113  and  _114
REMARK   47  A    between atoms: _116  and  _118
REMARK   48  A    between atoms: _118  and  _119
REMARK   49  A    between atoms: _118  and  _121
REMARK   50  A    between atoms: _124  and  _126
REMARK   51  A    between atoms: _126  and  _127
REMARK   52  A    between atoms: _126  and  _129
REMARK   53  A    between atoms: _129  and  _130
REMARK   54  A    between atoms: _136  and  _138
REMARK   55  A    between atoms: _138  and  _139
REMARK   56  A    between atoms: _138  and  _141
REMARK   57  A    between atoms: _144  and  _146
REMARK   58  A    between atoms: _146  and  _147
REMARK   59  A    between atoms: _146  and  _149
REMARK   60  A    between atoms: _149  and  _150
REMARK   61  A    between atoms: _155  and  _156
REMARK   62  A    between atoms: _158  and  _160
REMARK   63  A    between atoms: _160  and  _161
REMARK   64  A    between atoms: _160  and  _163
REMARK   65  A    between atoms: _163  and  _164
REMARK   66  A    between atoms: _164  and  _165
REMARK   67  A    between atoms: _167  and  _169
REMARK   68  A    between atoms: _169  and  _170
REMARK   69  A    between atoms: _169  and  _172
REMARK   70  A    between atoms: _172  and  _173
REMARK   71  A    between atoms: _173  and  _174
REMARK   72  A    between atoms: _177  and  _179
REMARK   73  A    between atoms: _179  and  _180
REMARK   74  A    between atoms: _179  and  _182
REMARK   75  A    between atoms: _182  and  _183
REMARK   76  A    between atoms: _183  and  _184
REMARK   77  A    between atoms: _187  and  _189
REMARK   78  A    between atoms: _189  and  _190
REMARK   79  A    between atoms: _189  and  _192
REMARK   80  A    between atoms: _192  and  _193
REMARK   81  A    between atoms: _198  and  _199
REMARK   82  A    between atoms: _201  and  _203
REMARK   83  A    between atoms: _203  and  _204
REMARK   84  A    between atoms: _203  and  _206
REMARK   85  A    between atoms: _206  and  _207
REMARK   86  A    between atoms: _207  and  _208
REMARK   87  A    between atoms: _208  and  _209
REMARK   88  A    between atoms: _218  and  _220
REMARK   89  A    between atoms: _220  and  _221
REMARK   90  A    between atoms: _220  and  _223
REMARK   91  A    between atoms: _223  and  _224
REMARK   92  A    between atoms: _224  and  _225
REMARK   93  A    between atoms: _228  and  _230
REMARK   94  A    between atoms: _230  and  _231
REMARK   95  A    between atoms: _230  and  _233
REMARK   96  A    between atoms: _233  and  _234
REMARK   97  A    between atoms: _234  and  _235
REMARK   98  A    between atoms: _240  and  _242
REMARK   99  A    between atoms: _242  and  _243
REMARK  100  A    between atoms: _242  and  _245
REMARK  101  A    between atoms: _245  and  _246
REMARK  102  A    between atoms: _246  and  _247
REMARK  103  A    between atoms: _247  and  _248
REMARK  104  A    between atoms: _248  and  _249
REMARK  105  A    between atoms: _253  and  _255
REMARK  106  A    between atoms: _255  and  _256
REMARK  107  A    between atoms: _259  and  _261
REMARK  108  A    between atoms: _261  and  _262
REMARK  109  A    between atoms: _264  and  _266
REMARK  110  A    between atoms: _266  and  _267
REMARK  111  A    between atoms: _266  and  _269
REMARK  112  A    between atoms: _269  and  _270
REMARK  113  A    between atoms: _275  and  _277
REMARK  114  A    between atoms: _277  and  _278
REMARK  115  A    between atoms: _277  and  _280
REMARK  116  A    between atoms: _280  and  _281
REMARK  117  A    between atoms: _281  and  _282
REMARK  118  A    between atoms: _285  and  _287
REMARK  119  A    between atoms: _287  and  _288
REMARK  120  A    between atoms: _287  and  _290
REMARK  121  A    between atoms: _290  and  _291
REMARK  122  A    between atoms: _291  and  _292
REMARK  123  A    between atoms: _297  and  _299
REMARK  124  A    between atoms: _299  and  _300
REMARK  125  A    between atoms: _299  and  _302
REMARK  126  A    between atoms: _302  and  _303
REMARK  127  A    between atoms: _305  and  _307
REMARK  128  A    between atoms: _307  and  _308
REMARK  129  A    between atoms: _307  and  _310
REMARK  130  A    between atoms: _310  and  _311
REMARK  131  A    between atoms: _317  and  _319
REMARK  132  A    between atoms: _319  and  _320
REMARK  133  A    between atoms: _319  and  _322
REMARK  134  A    between atoms: _325  and  _327
REMARK  135  A    between atoms: _327  and  _328
REMARK  136  A    between atoms: _327  and  _330
REMARK  137  A    between atoms: _330  and  _331
REMARK  138  A    between atoms: _334  and  _336
REMARK  139  A    between atoms: _336  and  _337
REMARK  140  A    between atoms: _336  and  _339
REMARK  141  A    between atoms: _339  and  _340
REMARK  142  A    between atoms: _343  and  _345
REMARK  143  A    between atoms: _345  and  _346
REMARK  144  A    between atoms: _345  and  _348
REMARK  145  A    between atoms: _348  and  _349
REMARK  146  A    between atoms: _352  and  _354
REMARK  147  A    between atoms: _354  and  _355
REMARK  148  A    between atoms: _354  and  _357
REMARK  149  A    between atoms: _357  and  _358
REMARK  150  A    between atoms: _361  and  _363
REMARK  151  A    between atoms: _363  and  _364
REMARK  152  A    between atoms: _363  and  _366
REMARK  153  A    between atoms: _366  and  _367
REMARK  154  A    between atoms: _372  and  _373
REMARK  155  A    between atoms: _375  and  _377
REMARK  156  A    between atoms: _377  and  _378
REMARK  157  A    between atoms: _377  and  _380
REMARK  158  A    between atoms: _380  and  _381
REMARK  159  A    between atoms: _386  and  _387
REMARK  160  A    between atoms: _389  and  _391
REMARK  161  A    between atoms: _391  and  _392
REMARK  162  A    between atoms: _391  and  _394
REMARK  163  A    between atoms: _394  and  _395
REMARK  164  A    between atoms: _398  and  _400
REMARK  165  A    between atoms: _400  and  _401
REMARK  166  A    between atoms: _400  and  _403
REMARK  167  A    between atoms: _403  and  _404
REMARK  168  A    between atoms: _404  and  _405
REMARK  169  A    between atoms: _410  and  _412
REMARK  170  A    between atoms: _412  and  _413
REMARK  171  A    between atoms: _412  and  _415
REMARK  172  A    between atoms: _418  and  _420
REMARK  173  A    between atoms: _420  and  _421
REMARK  174  A    between atoms: _420  and  _423
REMARK  175  A    between atoms: _423  and  _424
REMARK  176  A    between atoms: _427  and  _429
REMARK  177  A    between atoms: _429  and  _430
REMARK  178  A    between atoms: _429  and  _432
REMARK  179  A    between atoms: _432  and  _433
REMARK  180  A    between atoms: _435  and  _437
REMARK  181  A    between atoms: _437  and  _438
REMARK  182  A    between atoms: _440  and  _442
REMARK  183  A    between atoms: _442  and  _443
REMARK  184  A    between atoms: _442  and  _445
REMARK  185  A    between atoms: _445  and  _446
REMARK  186  A    between atoms: _446  and  _744
REMARK  187  A    between atoms: _447  and  _449
REMARK  188  A    between atoms: _449  and  _450
REMARK  189  A    between atoms: _449  and  _452
REMARK  190  A    between atoms: _452  and  _453
REMARK  191  A    between atoms: _458  and  _459
REMARK  192  A    between atoms: _461  and  _463
REMARK  193  A    between atoms: _463  and  _464
REMARK  194  A    between atoms: _463  and  _466
REMARK  195  A    between atoms: _466  and  _467
REMARK  196  A    between atoms: _467  and  _468
REMARK  197  A    between atoms: _473  and  _475
REMARK  198  A    between atoms: _475  and  _476
REMARK  199  A    between atoms: _475  and  _478
REMARK  200  A    between atoms: _478  and  _479
REMARK  201  A    between atoms: _479  and  _480
REMARK  202  A    between atoms: _485  and  _487
REMARK  203  A    between atoms: _487  and  _488
REMARK  204  A    between atoms: _487  and  _490
REMARK  205  A    between atoms: _490  and  _491
REMARK  206  A    between atoms: _496  and  _497
REMARK  207  A    between atoms: _499  and  _501
REMARK  208  A    between atoms: _501  and  _502
REMARK  209  A    between atoms: _505  and  _507
REMARK  210  A    between atoms: _507  and  _508
REMARK  211  A    between atoms: _507  and  _510
REMARK  212  A    between atoms: _510  and  _511
REMARK  213  A    between atoms: _516  and  _517
REMARK  214  A    between atoms: _519  and  _521
REMARK  215  A    between atoms: _521  and  _522
REMARK  216  A    between atoms: _521  and  _524
REMARK  217  A    between atoms: _524  and  _525
REMARK  218  A    between atoms: _530  and  _531
REMARK  219  A    between atoms: _533  and  _535
REMARK  220  A    between atoms: _535  and  _536
REMARK  221  A    between atoms: _535  and  _538
REMARK  222  A    between atoms: _538  and  _539
REMARK  223  A    between atoms: _542  and  _544
REMARK  224  A    between atoms: _544  and  _545
REMARK  225  A    between atoms: _544  and  _547
REMARK  226  A    between atoms: _547  and  _548
REMARK  227  A    between atoms: _558  and  _560
REMARK  228  A    between atoms: _560  and  _561
REMARK  229  A    between atoms: _564  and  _566
REMARK  230  A    between atoms: _566  and  _567
REMARK  231  A    between atoms: _570  and  _572
REMARK  232  A    between atoms: _572  and  _573
REMARK  233  A    between atoms: _572  and  _575
REMARK  234  A    between atoms: _575  and  _576
REMARK  235  A    between atoms: _579  and  _581
REMARK  236  A    between atoms: _581  and  _582
REMARK  237  A    between atoms: _581  and  _584
REMARK  238  A    between atoms: _584  and  _585
REMARK  239  A    between atoms: _588  and  _590
REMARK  240  A    between atoms: _590  and  _591
REMARK  241  A    between atoms: _590  and  _593
REMARK  242  A    between atoms: _593  and  _594
REMARK  243  A    between atoms: _597  and  _599
REMARK  244  A    between atoms: _599  and  _600
REMARK  245  A    between atoms: _599  and  _602
REMARK  246  A    between atoms: _602  and  _603
REMARK  247  A    between atoms: _603  and  _604
REMARK  248  A    between atoms: _604  and  _605
REMARK  249  A    between atoms: _605  and  _606
REMARK  250  A    between atoms: _610  and  _612
REMARK  251  A    between atoms: _612  and  _613
REMARK  252  A    between atoms: _612  and  _615
REMARK  253  A    between atoms: _615  and  _616
REMARK  254  A    between atoms: _621  and  _623
REMARK  255  A    between atoms: _623  and  _624
REMARK  256  A    between atoms: _623  and  _626
REMARK  257  A    between atoms: _626  and  _627
REMARK  258  A    between atoms: _627  and  _628
REMARK  259  A    between atoms: _628  and  _629
REMARK  260  A    between atoms: _629  and  _630
REMARK  261  A    between atoms: _634  and  _636
REMARK  262  A    between atoms: _636  and  _637
REMARK  263  A    between atoms: _636  and  _639
REMARK  264  A    between atoms: _639  and  _640
REMARK  265  A    between atoms: _650  and  _652
REMARK  266  A    between atoms: _652  and  _653
REMARK  267  A    between atoms: _656  and  _658
REMARK  268  A    between atoms: _658  and  _659
REMARK  269  A    between atoms: _661  and  _663
REMARK  270  A    between atoms: _663  and  _664
REMARK  271  A    between atoms: _667  and  _669
REMARK  272  A    between atoms: _669  and  _670
REMARK  273  A    between atoms: _673  and  _675
REMARK  274  A    between atoms: _675  and  _676
REMARK  275  A    between atoms: _675  and  _678
REMARK  276  A    between atoms: _678  and  _679
REMARK  277  A    between atoms: _684  and  _685
REMARK  278  A    between atoms: _687  and  _689
REMARK  279  A    between atoms: _689  and  _690
REMARK  280  A    between atoms: _689  and  _692
REMARK  281  A    between atoms: _692  and  _693
REMARK  282  A    between atoms: _698  and  _699
REMARK  283  A    between atoms: _701  and  _703
REMARK  284  A    between atoms: _703  and  _704
REMARK  285  A    between atoms: _703  and  _706
REMARK  286  A    between atoms: _706  and  _707
REMARK  287  A    between atoms: _712  and  _713
REMARK  288  A    between atoms: _715  and  _717
REMARK  289  A    between atoms: _717  and  _718
REMARK  290  A    between atoms: _717  and  _720
REMARK  291  A    between atoms: _720  and  _721
REMARK  292  A    between atoms: _724  and  _726
REMARK  293  A    between atoms: _726  and  _727
REMARK  294  A    between atoms: _729  and  _731
REMARK  295  A    between atoms: _731  and  _732
REMARK  296  A    between atoms: _731  and  _734
REMARK  297  A    between atoms: _734  and  _735
REMARK  298  A    between atoms: _738  and  _740
REMARK  299  A    between atoms: _740  and  _741
REMARK  300  A    between atoms: _740  and  _743
REMARK  301  A    between atoms: _743  and  _744
REMARK  302  A    between atoms: _745  and  _747
REMARK  303  A    between atoms: _747  and  _748
REMARK  304  A    between atoms: _747  and  _750
REMARK  305  A    between atoms: _753  and  _755
REMARK  306  A    between atoms: _755  and  _756
REMARK  307  A    between atoms: _755  and  _758
REMARK  308  A    between atoms: _758  and  _759
REMARK  309  A    between atoms: _759  and  _760
REMARK  310  A    between atoms: _763  and  _765
REMARK  311  A    between atoms: _765  and  _766
REMARK  312  A    between atoms: _765  and  _768
REMARK  313  A    between atoms: _768  and  _769
REMARK  314  A    between atoms: _779  and  _781
REMARK  315  A    between atoms: _781  and  _782
REMARK  316  A    between atoms: _781  and  _784
REMARK  317  A    between atoms: _784  and  _785
REMARK  318  A    between atoms: _788  and  _790
REMARK  319  A    between atoms: _790  and  _791
REMARK  320  A    between atoms: _790  and  _793
REMARK  321  A    between atoms: _793  and  _794
REMARK  322  A    between atoms: _799  and  _800
REMARK                            x       y       z     vdW  Elec       q    Type
REMARK                         _______ _______ _______ _____ _____    ______ ____
ROOT
ATOM      1  O   HOH     1      40.798  65.263 -18.938  0.00  0.00    +0.000 OA
ENDROOT
TORSDOF 0
REMARK  Name = ../refined-set-2016/1fzk/1fzk_pocket.pdb
REMARK  322 active torsions:
REMARK  status: ('A' for Active; 'I' for Inactive)
REMARK    1  A    between atoms: _1  and  _3
REMARK    2  A    between atoms: _3  and  _4
REMARK    3  A    between atoms: _3  and  _6
REMARK    4  A    between atoms: _6  and  _7
REMARK    5  A    between atoms: _10  and  _12
REMARK    6  A    between atoms: _12  and  _13
REMARK    7  A    between atoms: _12  and  _15
REMARK    8  A    between atoms: _15  and  _16
REMARK    9  A    between atoms: _16  and  _17
REMARK   10  A    between atoms: _17  and  _18
REMARK   11  A    between atoms: _27  and  _29
REMARK   12  A    between atoms: _29  and  _30
REMARK   13  A    between atoms: _29  and  _32
REMARK   14  A    between atoms: _32  and  _33
REMARK   15  A    between atoms: _38  and  _39
REMARK   16  A    between atoms: _41  and  _43
REMARK   17  A    between atoms: _43  and  _44
REMARK   18  A    between atoms: _43  and  _46
REMARK   19  A    between atoms: _46  and  _47
REMARK   20  A    between atoms: _53  and  _55
REMARK   21  A    between atoms: _55  and  _56
REMARK   22  A    between atoms: _55  and  _58
REMARK   23  A    between atoms: _61  and  _63
REMARK   24  A    between atoms: _63  and  _64
REMARK   25  A    between atoms: _63  and  _66
REMARK   26  A    between atoms: _66  and  _67
REMARK   27  A    between atoms: _70  and  _72
REMARK   28  A    between atoms: _72  and  _73
REMARK   29  A    between atoms: _72  and  _75
REMARK   30  A    between atoms: _75  and  _76
REMARK   31  A    between atoms: _81  and  _82
REMARK   32  A    between atoms: _84  and  _86
REMARK   33  A    between atoms: _86  and  _87
REMARK   34  A    between atoms: _86  and  _89
REMARK   35  A    between atoms: _89  and  _90
REMARK   36  A    between atoms: _90  and  _91
REMARK   37  A    between atoms: _93  and  _95
REMARK   38  A    between atoms: _95  and  _96
REMARK   39  A    between atoms: _95  and  _98
REMARK   40  A    between atoms: _98  and  _99
REMARK   41  A    between atoms: _99  and  _100
REMARK   42  A    between atoms: _103  and  _105
REMARK   43  A    between atoms: _105  and  _106
REMARK   44  A    between atoms: _105  and  _108
REMARK   45  A    between atoms: _111  and  _113
REMARK   46  A    between atoms: _113  and  _114
REMARK   47  A    between atoms: _116  and  _118
REMARK   48  A    between atoms: _118  and  _119
REMARK   49  A    between atoms: _118  and  _121
REMARK   50  A    between atoms: _124  and  _126
REMARK   51  A    between atoms: _126  and  _127
REMARK   52  A    between atoms: _126  and  _129
REMARK   53  A    between atoms: _129  and  _130
REMARK   54  A    between atoms: _136  and  _138
REMARK   55  A    between atoms: _138  and  _139
REMARK   56  A    between atoms: _138  and  _141
REMARK   57  A    between atoms: _144  and  _146
REMARK   58  A    between atoms: _146  and  _147
REMARK   59  A    between atoms: _146  and  _149
REMARK   60  A    between atoms: _149  and  _150
REMARK   61  A    between atoms: _155  and  _156
REMARK   62  A    between atoms: _158  and  _160
REMARK   63  A    between atoms: _160  and  _161
REMARK   64  A    between atoms: _160  and  _163
REMARK   65  A    between atoms: _163  and  _164
REMARK   66  A    between atoms: _164  and  _165
REMARK   67  A    between atoms: _167  and  _169
REMARK   68  A    between atoms: _169  and  _170
REMARK   69  A    between atoms: _169  and  _172
REMARK   70  A    between atoms: _172  and  _173
REMARK   71  A    between atoms: _173  and  _174
REMARK   72  A    between atoms: _177  and  _179
REMARK   73  A    between atoms: _179  and  _180
REMARK   74  A    between atoms: _179  and  _182
REMARK   75  A    between atoms: _182  and  _183
REMARK   76  A    between atoms: _183  and  _184
REMARK   77  A    between atoms: _187  and  _189
REMARK   78  A    between atoms: _189  and  _190
REMARK   79  A    between atoms: _189  and  _192
REMARK   80  A    between atoms: _192  and  _193
REMARK   81  A    between atoms: _198  and  _199
REMARK   82  A    between atoms: _201  and  _203
REMARK   83  A    between atoms: _203  and  _204
REMARK   84  A    between atoms: _203  and  _206
REMARK   85  A    between atoms: _206  and  _207
REMARK   86  A    between atoms: _207  and  _208
REMARK   87  A    between atoms: _208  and  _209
REMARK   88  A    between atoms: _218  and  _220
REMARK   89  A    between atoms: _220  and  _221
REMARK   90  A    between atoms: _220  and  _223
REMARK   91  A    between atoms: _223  and  _224
REMARK   92  A    between atoms: _224  and  _225
REMARK   93  A    between atoms: _228  and  _230
REMARK   94  A    between atoms: _230  and  _231
REMARK   95  A    between atoms: _230  and  _233
REMARK   96  A    between atoms: _233  and  _234
REMARK   97  A    between atoms: _234  and  _235
REMARK   98  A    between atoms: _240  and  _242
REMARK   99  A    between atoms: _242  and  _243
REMARK  100  A    between atoms: _242  and  _245
REMARK  101  A    between atoms: _245  and  _246
REMARK  102  A    between atoms: _246  and  _247
REMARK  103  A    between atoms: _247  and  _248
REMARK  104  A    between atoms: _248  and  _249
REMARK  105  A    between atoms: _253  and  _255
REMARK  106  A    between atoms: _255  and  _256
REMARK  107  A    between atoms: _259  and  _261
REMARK  108  A    between atoms: _261  and  _262
REMARK  109  A    between atoms: _264  and  _266
REMARK  110  A    between atoms: _266  and  _267
REMARK  111  A    between atoms: _266  and  _269
REMARK  112  A    between atoms: _269  and  _270
REMARK  113  A    between atoms: _275  and  _277
REMARK  114  A    between atoms: _277  and  _278
REMARK  115  A    between atoms: _277  and  _280
REMARK  116  A    between atoms: _280  and  _281
REMARK  117  A    between atoms: _281  and  _282
REMARK  118  A    between atoms: _285  and  _287
REMARK  119  A    between atoms: _287  and  _288
REMARK  120  A    between atoms: _287  and  _290
REMARK  121  A    between atoms: _290  and  _291
REMARK  122  A    between atoms: _291  and  _292
REMARK  123  A    between atoms: _297  and  _299
REMARK  124  A    between atoms: _299  and  _300
REMARK  125  A    between atoms: _299  and  _302
REMARK  126  A    between atoms: _302  and  _303
REMARK  127  A    between atoms: _305  and  _307
REMARK  128  A    between atoms: _307  and  _308
REMARK  129  A    between atoms: _307  and  _310
REMARK  130  A    between atoms: _310  and  _311
REMARK  131  A    between atoms: _317  and  _319
REMARK  132  A    between atoms: _319  and  _320
REMARK  133  A    between atoms: _319  and  _322
REMARK  134  A    between atoms: _325  and  _327
REMARK  135  A    between atoms: _327  and  _328
REMARK  136  A    between atoms: _327  and  _330
REMARK  137  A    between atoms: _330  and  _331
REMARK  138  A    between atoms: _334  and  _336
REMARK  139  A    between atoms: _336  and  _337
REMARK  140  A    between atoms: _336  and  _339
REMARK  141  A    between atoms: _339  and  _340
REMARK  142  A    between atoms: _343  and  _345
REMARK  143  A    between atoms: _345  and  _346
REMARK  144  A    between atoms: _345  and  _348
REMARK  145  A    between atoms: _348  and  _349
REMARK  146  A    between atoms: _352  and  _354
REMARK  147  A    between atoms: _354  and  _355
REMARK  148  A    between atoms: _354  and  _357
REMARK  149  A    between atoms: _357  and  _358
REMARK  150  A    between atoms: _361  and  _363
REMARK  151  A    between atoms: _363  and  _364
REMARK  152  A    between atoms: _363  and  _366
REMARK  153  A    between atoms: _366  and  _367
REMARK  154  A    between atoms: _372  and  _373
REMARK  155  A    between atoms: _375  and  _377
REMARK  156  A    between atoms: _377  and  _378
REMARK  157  A    between atoms: _377  and  _380
REMARK  158  A    between atoms: _380  and  _381
REMARK  159  A    between atoms: _386  and  _387
REMARK  160  A    between atoms: _389  and  _391
REMARK  161  A    between atoms: _391  and  _392
REMARK  162  A    between atoms: _391  and  _394
REMARK  163  A    between atoms: _394  and  _395
REMARK  164  A    between atoms: _398  and  _400
REMARK  165  A    between atoms: _400  and  _401
REMARK  166  A    between atoms: _400  and  _403
REMARK  167  A    between atoms: _403  and  _404
REMARK  168  A    between atoms: _404  and  _405
REMARK  169  A    between atoms: _410  and  _412
REMARK  170  A    between atoms: _412  and  _413
REMARK  171  A    between atoms: _412  and  _415
REMARK  172  A    between atoms: _418  and  _420
REMARK  173  A    between atoms: _420  and  _421
REMARK  174  A    between atoms: _420  and  _423
REMARK  175  A    between atoms: _423  and  _424
REMARK  176  A    between atoms: _427  and  _429
REMARK  177  A    between atoms: _429  and  _430
REMARK  178  A    between atoms: _429  and  _432
REMARK  179  A    between atoms: _432  and  _433
REMARK  180  A    between atoms: _435  and  _437
REMARK  181  A    between atoms: _437  and  _438
REMARK  182  A    between atoms: _440  and  _442
REMARK  183  A    between atoms: _442  and  _443
REMARK  184  A    between atoms: _442  and  _445
REMARK  185  A    between atoms: _445  and  _446
REMARK  186  A    between atoms: _446  and  _744
REMARK  187  A    between atoms: _447  and  _449
REMARK  188  A    between atoms: _449  and  _450
REMARK  189  A    between atoms: _449  and  _452
REMARK  190  A    between atoms: _452  and  _453
REMARK  191  A    between atoms: _458  and  _459
REMARK  192  A    between atoms: _461  and  _463
REMARK  193  A    between atoms: _463  and  _464
REMARK  194  A    between atoms: _463  and  _466
REMARK  195  A    between atoms: _466  and  _467
REMARK  196  A    between atoms: _467  and  _468
REMARK  197  A    between atoms: _473  and  _475
REMARK  198  A    between atoms: _475  and  _476
REMARK  199  A    between atoms: _475  and  _478
REMARK  200  A    between atoms: _478  and  _479
REMARK  201  A    between atoms: _479  and  _480
REMARK  202  A    between atoms: _485  and  _487
REMARK  203  A    between atoms: _487  and  _488
REMARK  204  A    between atoms: _487  and  _490
REMARK  205  A    between atoms: _490  and  _491
REMARK  206  A    between atoms: _496  and  _497
REMARK  207  A    between atoms: _499  and  _501
REMARK  208  A    between atoms: _501  and  _502
REMARK  209  A    between atoms: _505  and  _507
REMARK  210  A    between atoms: _507  and  _508
REMARK  211  A    between atoms: _507  and  _510
REMARK  212  A    between atoms: _510  and  _511
REMARK  213  A    between atoms: _516  and  _517
REMARK  214  A    between atoms: _519  and  _521
REMARK  215  A    between atoms: _521  and  _522
REMARK  216  A    between atoms: _521  and  _524
REMARK  217  A    between atoms: _524  and  _525
REMARK  218  A    between atoms: _530  and  _531
REMARK  219  A    between atoms: _533  and  _535
REMARK  220  A    between atoms: _535  and  _536
REMARK  221  A    between atoms: _535  and  _538
REMARK  222  A    between atoms: _538  and  _539
REMARK  223  A    between atoms: _542  and  _544
REMARK  224  A    between atoms: _544  and  _545
REMARK  225  A    between atoms: _544  and  _547
REMARK  226  A    between atoms: _547  and  _548
REMARK  227  A    between atoms: _558  and  _560
REMARK  228  A    between atoms: _560  and  _561
REMARK  229  A    between atoms: _564  and  _566
REMARK  230  A    between atoms: _566  and  _567
REMARK  231  A    between atoms: _570  and  _572
REMARK  232  A    between atoms: _572  and  _573
REMARK  233  A    between atoms: _572  and  _575
REMARK  234  A    between atoms: _575  and  _576
REMARK  235  A    between atoms: _579  and  _581
REMARK  236  A    between atoms: _581  and  _582
REMARK  237  A    between atoms: _581  and  _584
REMARK  238  A    between atoms: _584  and  _585
REMARK  239  A    between atoms: _588  and  _590
REMARK  240  A    between atoms: _590  and  _591
REMARK  241  A    between atoms: _590  and  _593
REMARK  242  A    between atoms: _593  and  _594
REMARK  243  A    between atoms: _597  and  _599
REMARK  244  A    between atoms: _599  and  _600
REMARK  245  A    between atoms: _599  and  _602
REMARK  246  A    between atoms: _602  and  _603
REMARK  247  A    between atoms: _603  and  _604
REMARK  248  A    between atoms: _604  and  _605
REMARK  249  A    between atoms: _605  and  _606
REMARK  250  A    between atoms: _610  and  _612
REMARK  251  A    between atoms: _612  and  _613
REMARK  252  A    between atoms: _612  and  _615
REMARK  253  A    between atoms: _615  and  _616
REMARK  254  A    between atoms: _621  and  _623
REMARK  255  A    between atoms: _623  and  _624
REMARK  256  A    between atoms: _623  and  _626
REMARK  257  A    between atoms: _626  and  _627
REMARK  258  A    between atoms: _627  and  _628
REMARK  259  A    between atoms: _628  and  _629
REMARK  260  A    between atoms: _629  and  _630
REMARK  261  A    between atoms: _634  and  _636
REMARK  262  A    between atoms: _636  and  _637
REMARK  263  A    between atoms: _636  and  _639
REMARK  264  A    between atoms: _639  and  _640
REMARK  265  A    between atoms: _650  and  _652
REMARK  266  A    between atoms: _652  and  _653
REMARK  267  A    between atoms: _656  and  _658
REMARK  268  A    between atoms: _658  and  _659
REMARK  269  A    between atoms: _661  and  _663
REMARK  270  A    between atoms: _663  and  _664
REMARK  271  A    between atoms: _667  and  _669
REMARK  272  A    between atoms: _669  and  _670
REMARK  273  A    between atoms: _673  and  _675
REMARK  274  A    between atoms: _675  and  _676
REMARK  275  A    between atoms: _675  and  _678
REMARK  276  A    between atoms: _678  and  _679
REMARK  277  A    between atoms: _684  and  _685
REMARK  278  A    between atoms: _687  and  _689
REMARK  279  A    between atoms: _689  and  _690
REMARK  280  A    between atoms: _689  and  _692
REMARK  281  A    between atoms: _692  and  _693
REMARK  282  A    between atoms: _698  and  _699
REMARK  283  A    between atoms: _701  and  _703
REMARK  284  A    between atoms: _703  and  _704
REMARK  285  A    between atoms: _703  and  _706
REMARK  286  A    between atoms: _706  and  _707
REMARK  287  A    between atoms: _712  and  _713
REMARK  288  A    between atoms: _715  and  _717
REMARK  289  A    between atoms: _717  and  _718
REMARK  290  A    between atoms: _717  and  _720
REMARK  291  A    between atoms: _720  and  _721
REMARK  292  A    between atoms: _724  and  _726
REMARK  293  A    between atoms: _726  and  _727
REMARK  294  A    between atoms: _729  and  _731
REMARK  295  A    between atoms: _731  and  _732
REMARK  296  A    between atoms: _731  and  _734
REMARK  297  A    between atoms: _734  and  _735
REMARK  298  A    between atoms: _738  and  _740
REMARK  299  A    between atoms: _740  and  _741
REMARK  300  A    between atoms: _740  and  _743
REMARK  301  A    between atoms: _743  and  _744
REMARK  302  A    between atoms: _745  and  _747
REMARK  303  A    between atoms: _747  and  _748
REMARK  304  A    between atoms: _747  and  _750
REMARK  305  A    between atoms: _753  and  _755
REMARK  306  A    between atoms: _755  and  _756
REMARK  307  A    between atoms: _755  and  _758
REMARK  308  A    between atoms: _758  and  _759
REMARK  309  A    between atoms: _759  and  _760
REMARK  310  A    between atoms: _763  and  _765
REMARK  311  A    between atoms: _765  and  _766
REMARK  312  A    between atoms: _765  and  _768
REMARK  313  A    between atoms: _768  and  _769
REMARK  314  A    between atoms: _779  and  _781
REMARK  315  A    between atoms: _781  and  _782
REMARK  316  A    between atoms: _781  and  _784
REMARK  317  A    between atoms: _784  and  _785
REMARK  318  A    between atoms: _788  and  _790
REMARK  319  A    between atoms: _790  and  _791
REMARK  320  A    between atoms: _790  and  _793
REMARK  321  A    between atoms: _793  and  _794
REMARK  322  A    between atoms: _799  and  _800
REMARK                            x       y       z     vdW  Elec       q    Type
REMARK                         _______ _______ _______ _____ _____    ______ ____
ROOT
ATOM      1  O   HOH     1      45.796  58.133  -6.743  0.00  0.00    +0.000 OA
ENDROOT
TORSDOF 0
REMARK  Name = ../refined-set-2016/1fzk/1fzk_pocket.pdb
REMARK  322 active torsions:
REMARK  status: ('A' for Active; 'I' for Inactive)
REMARK    1  A    between atoms: _1  and  _3
REMARK    2  A    between atoms: _3  and  _4
REMARK    3  A    between atoms: _3  and  _6
REMARK    4  A    between atoms: _6  and  _7
REMARK    5  A    between atoms: _10  and  _12
REMARK    6  A    between atoms: _12  and  _13
REMARK    7  A    between atoms: _12  and  _15
REMARK    8  A    between atoms: _15  and  _16
REMARK    9  A    between atoms: _16  and  _17
REMARK   10  A    between atoms: _17  and  _18
REMARK   11  A    between atoms: _27  and  _29
REMARK   12  A    between atoms: _29  and  _30
REMARK   13  A    between atoms: _29  and  _32
REMARK   14  A    between atoms: _32  and  _33
REMARK   15  A    between atoms: _38  and  _39
REMARK   16  A    between atoms: _41  and  _43
REMARK   17  A    between atoms: _43  and  _44
REMARK   18  A    between atoms: _43  and  _46
REMARK   19  A    between atoms: _46  and  _47
REMARK   20  A    between atoms: _53  and  _55
REMARK   21  A    between atoms: _55  and  _56
REMARK   22  A    between atoms: _55  and  _58
REMARK   23  A    between atoms: _61  and  _63
REMARK   24  A    between atoms: _63  and  _64
REMARK   25  A    between atoms: _63  and  _66
REMARK   26  A    between atoms: _66  and  _67
REMARK   27  A    between atoms: _70  and  _72
REMARK   28  A    between atoms: _72  and  _73
REMARK   29  A    between atoms: _72  and  _75
REMARK   30  A    between atoms: _75  and  _76
REMARK   31  A    between atoms: _81  and  _82
REMARK   32  A    between atoms: _84  and  _86
REMARK   33  A    between atoms: _86  and  _87
REMARK   34  A    between atoms: _86  and  _89
REMARK   35  A    between atoms: _89  and  _90
REMARK   36  A    between atoms: _90  and  _91
REMARK   37  A    between atoms: _93  and  _95
REMARK   38  A    between atoms: _95  and  _96
REMARK   39  A    between atoms: _95  and  _98
REMARK   40  A    between atoms: _98  and  _99
REMARK   41  A    between atoms: _99  and  _100
REMARK   42  A    between atoms: _103  and  _105
REMARK   43  A    between atoms: _105  and  _106
REMARK   44  A    between atoms: _105  and  _108
REMARK   45  A    between atoms: _111  and  _113
REMARK   46  A    between atoms: _113  and  _114
REMARK   47  A    between atoms: _116  and  _118
REMARK   48  A    between atoms: _118  and  _119
REMARK   49  A    between atoms: _118  and  _121
REMARK   50  A    between atoms: _124  and  _126
REMARK   51  A    between atoms: _126  and  _127
REMARK   52  A    between atoms: _126  and  _129
REMARK   53  A    between atoms: _129  and  _130
REMARK   54  A    between atoms: _136  and  _138
REMARK   55  A    between atoms: _138  and  _139
REMARK   56  A    between atoms: _138  and  _141
REMARK   57  A    between atoms: _144  and  _146
REMARK   58  A    between atoms: _146  and  _147
REMARK   59  A    between atoms: _146  and  _149
REMARK   60  A    between atoms: _149  and  _150
REMARK   61  A    between atoms: _155  and  _156
REMARK   62  A    between atoms: _158  and  _160
REMARK   63  A    between atoms: _160  and  _161
REMARK   64  A    between atoms: _160  and  _163
REMARK   65  A    between atoms: _163  and  _164
REMARK   66  A    between atoms: _164  and  _165
REMARK   67  A    between atoms: _167  and  _169
REMARK   68  A    between atoms: _169  and  _170
REMARK   69  A    between atoms: _169  and  _172
REMARK   70  A    between atoms: _172  and  _173
REMARK   71  A    between atoms: _173  and  _174
REMARK   72  A    between atoms: _177  and  _179
REMARK   73  A    between atoms: _179  and  _180
REMARK   74  A    between atoms: _179  and  _182
REMARK   75  A    between atoms: _182  and  _183
REMARK   76  A    between atoms: _183  and  _184
REMARK   77  A    between atoms: _187  and  _189
REMARK   78  A    between atoms: _189  and  _190
REMARK   79  A    between atoms: _189  and  _192
REMARK   80  A    between atoms: _192  and  _193
REMARK   81  A    between atoms: _198  and  _199
REMARK   82  A    between atoms: _201  and  _203
REMARK   83  A    between atoms: _203  and  _204
REMARK   84  A    between atoms: _203  and  _206
REMARK   85  A    between atoms: _206  and  _207
REMARK   86  A    between atoms: _207  and  _208
REMARK   87  A    between atoms: _208  and  _209
REMARK   88  A    between atoms: _218  and  _220
REMARK   89  A    between atoms: _220  and  _221
REMARK   90  A    between atoms: _220  and  _223
REMARK   91  A    between atoms: _223  and  _224
REMARK   92  A    between atoms: _224  and  _225
REMARK   93  A    between atoms: _228  and  _230
REMARK   94  A    between atoms: _230  and  _231
REMARK   95  A    between atoms: _230  and  _233
REMARK   96  A    between atoms: _233  and  _234
REMARK   97  A    between atoms: _234  and  _235
REMARK   98  A    between atoms: _240  and  _242
REMARK   99  A    between atoms: _242  and  _243
REMARK  100  A    between atoms: _242  and  _245
REMARK  101  A    between atoms: _245  and  _246
REMARK  102  A    between atoms: _246  and  _247
REMARK  103  A    between atoms: _247  and  _248
REMARK  104  A    between atoms: _248  and  _249
REMARK  105  A    between atoms: _253  and  _255
REMARK  106  A    between atoms: _255  and  _256
REMARK  107  A    between atoms: _259  and  _261
REMARK  108  A    between atoms: _261  and  _262
REMARK  109  A    between atoms: _264  and  _266
REMARK  110  A    between atoms: _266  and  _267
REMARK  111  A    between atoms: _266  and  _269
REMARK  112  A    between atoms: _269  and  _270
REMARK  113  A    between atoms: _275  and  _277
REMARK  114  A    between atoms: _277  and  _278
REMARK  115  A    between atoms: _277  and  _280
REMARK  116  A    between atoms: _280  and  _281
REMARK  117  A    between atoms: _281  and  _282
REMARK  118  A    between atoms: _285  and  _287
REMARK  119  A    between atoms: _287  and  _288
REMARK  120  A    between atoms: _287  and  _290
REMARK  121  A    between atoms: _290  and  _291
REMARK  122  A    between atoms: _291  and  _292
REMARK  123  A    between atoms: _297  and  _299
REMARK  124  A    between atoms: _299  and  _300
REMARK  125  A    between atoms: _299  and  _302
REMARK  126  A    between atoms: _302  and  _303
REMARK  127  A    between atoms: _305  and  _307
REMARK  128  A    between atoms: _307  and  _308
REMARK  129  A    between atoms: _307  and  _310
REMARK  130  A    between atoms: _310  and  _311
REMARK  131  A    between atoms: _317  and  _319
REMARK  132  A    between atoms: _319  and  _320
REMARK  133  A    between atoms: _319  and  _322
REMARK  134  A    between atoms: _325  and  _327
REMARK  135  A    between atoms: _327  and  _328
REMARK  136  A    between atoms: _327  and  _330
REMARK  137  A    between atoms: _330  and  _331
REMARK  138  A    between atoms: _334  and  _336
REMARK  139  A    between atoms: _336  and  _337
REMARK  140  A    between atoms: _336  and  _339
REMARK  141  A    between atoms: _339  and  _340
REMARK  142  A    between atoms: _343  and  _345
REMARK  143  A    between atoms: _345  and  _346
REMARK  144  A    between atoms: _345  and  _348
REMARK  145  A    between atoms: _348  and  _349
REMARK  146  A    between atoms: _352  and  _354
REMARK  147  A    between atoms: _354  and  _355
REMARK  148  A    between atoms: _354  and  _357
REMARK  149  A    between atoms: _357  and  _358
REMARK  150  A    between atoms: _361  and  _363
REMARK  151  A    between atoms: _363  and  _364
REMARK  152  A    between atoms: _363  and  _366
REMARK  153  A    between atoms: _366  and  _367
REMARK  154  A    between atoms: _372  and  _373
REMARK  155  A    between atoms: _375  and  _377
REMARK  156  A    between atoms: _377  and  _378
REMARK  157  A    between atoms: _377  and  _380
REMARK  158  A    between atoms: _380  and  _381
REMARK  159  A    between atoms: _386  and  _387
REMARK  160  A    between atoms: _389  and  _391
REMARK  161  A    between atoms: _391  and  _392
REMARK  162  A    between atoms: _391  and  _394
REMARK  163  A    between atoms: _394  and  _395
REMARK  164  A    between atoms: _398  and  _400
REMARK  165  A    between atoms: _400  and  _401
REMARK  166  A    between atoms: _400  and  _403
REMARK  167  A    between atoms: _403  and  _404
REMARK  168  A    between atoms: _404  and  _405
REMARK  169  A    between atoms: _410  and  _412
REMARK  170  A    between atoms: _412  and  _413
REMARK  171  A    between atoms: _412  and  _415
REMARK  172  A    between atoms: _418  and  _420
REMARK  173  A    between atoms: _420  and  _421
REMARK  174  A    between atoms: _420  and  _423
REMARK  175  A    between atoms: _423  and  _424
REMARK  176  A    between atoms: _427  and  _429
REMARK  177  A    between atoms: _429  and  _430
REMARK  178  A    between atoms: _429  and  _432
REMARK  179  A    between atoms: _432  and  _433
REMARK  180  A    between atoms: _435  and  _437
REMARK  181  A    between atoms: _437  and  _438
REMARK  182  A    between atoms: _440  and  _442
REMARK  183  A    between atoms: _442  and  _443
REMARK  184  A    between atoms: _442  and  _445
REMARK  185  A    between atoms: _445  and  _446
REMARK  186  A    between atoms: _446  and  _744
REMARK  187  A    between atoms: _447  and  _449
REMARK  188  A    between atoms: _449  and  _450
REMARK  189  A    between atoms: _449  and  _452
REMARK  190  A    between atoms: _452  and  _453
REMARK  191  A    between atoms: _458  and  _459
REMARK  192  A    between atoms: _461  and  _463
REMARK  193  A    between atoms: _463  and  _464
REMARK  194  A    between atoms: _463  and  _466
REMARK  195  A    between atoms: _466  and  _467
REMARK  196  A    between atoms: _467  and  _468
REMARK  197  A    between atoms: _473  and  _475
REMARK  198  A    between atoms: _475  and  _476
REMARK  199  A    between atoms: _475  and  _478
REMARK  200  A    between atoms: _478  and  _479
REMARK  201  A    between atoms: _479  and  _480
REMARK  202  A    between atoms: _485  and  _487
REMARK  203  A    between atoms: _487  and  _488
REMARK  204  A    between atoms: _487  and  _490
REMARK  205  A    between atoms: _490  and  _491
REMARK  206  A    between atoms: _496  and  _497
REMARK  207  A    between atoms: _499  and  _501
REMARK  208  A    between atoms: _501  and  _502
REMARK  209  A    between atoms: _505  and  _507
REMARK  210  A    between atoms: _507  and  _508
REMARK  211  A    between atoms: _507  and  _510
REMARK  212  A    between atoms: _510  and  _511
REMARK  213  A    between atoms: _516  and  _517
REMARK  214  A    between atoms: _519  and  _521
REMARK  215  A    between atoms: _521  and  _522
REMARK  216  A    between atoms: _521  and  _524
REMARK  217  A    between atoms: _524  and  _525
REMARK  218  A    between atoms: _530  and  _531
REMARK  219  A    between atoms: _533  and  _535
REMARK  220  A    between atoms: _535  and  _536
REMARK  221  A    between atoms: _535  and  _538
REMARK  222  A    between atoms: _538  and  _539
REMARK  223  A    between atoms: _542  and  _544
REMARK  224  A    between atoms: _544  and  _545
REMARK  225  A    between atoms: _544  and  _547
REMARK  226  A    between atoms: _547  and  _548
REMARK  227  A    between atoms: _558  and  _560
REMARK  228  A    between atoms: _560  and  _561
REMARK  229  A    between atoms: _564  and  _566
REMARK  230  A    between atoms: _566  and  _567
REMARK  231  A    between atoms: _570  and  _572
REMARK  232  A    between atoms: _572  and  _573
REMARK  233  A    between atoms: _572  and  _575
REMARK  234  A    between atoms: _575  and  _576
REMARK  235  A    between atoms: _579  and  _581
REMARK  236  A    between atoms: _581  and  _582
REMARK  237  A    between atoms: _581  and  _584
REMARK  238  A    between atoms: _584  and  _585
REMARK  239  A    between atoms: _588  and  _590
REMARK  240  A    between atoms: _590  and  _591
REMARK  241  A    between atoms: _590  and  _593
REMARK  242  A    between atoms: _593  and  _594
REMARK  243  A    between atoms: _597  and  _599
REMARK  244  A    between atoms: _599  and  _600
REMARK  245  A    between atoms: _599  and  _602
REMARK  246  A    between atoms: _602  and  _603
REMARK  247  A    between atoms: _603  and  _604
REMARK  248  A    between atoms: _604  and  _605
REMARK  249  A    between atoms: _605  and  _606
REMARK  250  A    between atoms: _610  and  _612
REMARK  251  A    between atoms: _612  and  _613
REMARK  252  A    between atoms: _612  and  _615
REMARK  253  A    between atoms: _615  and  _616
REMARK  254  A    between atoms: _621  and  _623
REMARK  255  A    between atoms: _623  and  _624
REMARK  256  A    between atoms: _623  and  _626
REMARK  257  A    between atoms: _626  and  _627
REMARK  258  A    between atoms: _627  and  _628
REMARK  259  A    between atoms: _628  and  _629
REMARK  260  A    between atoms: _629  and  _630
REMARK  261  A    between atoms: _634  and  _636
REMARK  262  A    between atoms: _636  and  _637
REMARK  263  A    between atoms: _636  and  _639
REMARK  264  A    between atoms: _639  and  _640
REMARK  265  A    between atoms: _650  and  _652
REMARK  266  A    between atoms: _652  and  _653
REMARK  267  A    between atoms: _656  and  _658
REMARK  268  A    between atoms: _658  and  _659
REMARK  269  A    between atoms: _661  and  _663
REMARK  270  A    between atoms: _663  and  _664
REMARK  271  A    between atoms: _667  and  _669
REMARK  272  A    between atoms: _669  and  _670
REMARK  273  A    between atoms: _673  and  _675
REMARK  274  A    between atoms: _675  and  _676
REMARK  275  A    between atoms: _675  and  _678
REMARK  276  A    between atoms: _678  and  _679
REMARK  277  A    between atoms: _684  and  _685
REMARK  278  A    between atoms: _687  and  _689
REMARK  279  A    between atoms: _689  and  _690
REMARK  280  A    between atoms: _689  and  _692
REMARK  281  A    between atoms: _692  and  _693
REMARK  282  A    between atoms: _698  and  _699
REMARK  283  A    between atoms: _701  and  _703
REMARK  284  A    between atoms: _703  and  _704
REMARK  285  A    between atoms: _703  and  _706
REMARK  286  A    between atoms: _706  and  _707
REMARK  287  A    between atoms: _712  and  _713
REMARK  288  A    between atoms: _715  and  _717
REMARK  289  A    between atoms: _717  and  _718
REMARK  290  A    between atoms: _717  and  _720
REMARK  291  A    between atoms: _720  and  _721
REMARK  292  A    between atoms: _724  and  _726
REMARK  293  A    between atoms: _726  and  _727
REMARK  294  A    between atoms: _729  and  _731
REMARK  295  A    between atoms: _731  and  _732
REMARK  296  A    between atoms: _731  and  _734
REMARK  297  A    between atoms: _734  and  _735
REMARK  298  A    between atoms: _738  and  _740
REMARK  299  A    between atoms: _740  and  _741
REMARK  300  A    between atoms: _740  and  _743
REMARK  301  A    between atoms: _743  and  _744
REMARK  302  A    between atoms: _745  and  _747
REMARK  303  A    between atoms: _747  and  _748
REMARK  304  A    between atoms: _747  and  _750
REMARK  305  A    between atoms: _753  and  _755
REMARK  306  A    between atoms: _755  and  _756
REMARK  307  A    between atoms: _755  and  _758
REMARK  308  A    between atoms: _758  and  _759
REMARK  309  A    between atoms: _759  and  _760
REMARK  310  A    between atoms: _763  and  _765
REMARK  311  A    between atoms: _765  and  _766
REMARK  312  A    between atoms: _765  and  _768
REMARK  313  A    between atoms: _768  and  _769
REMARK  314  A    between atoms: _779  and  _781
REMARK  315  A    between atoms: _781  and  _782
REMARK  316  A    between atoms: _781  and  _784
REMARK  317  A    between atoms: _784  and  _785
REMARK  318  A    between atoms: _788  and  _790
REMARK  319  A    between atoms: _790  and  _791
REMARK  320  A    between atoms: _790  and  _793
REMARK  321  A    between atoms: _793  and  _794
REMARK  322  A    between atoms: _799  and  _800
REMARK                            x       y       z     vdW  Elec       q    Type
REMARK                         _______ _______ _______ _____ _____    ______ ____
ROOT
ATOM      1  O   HOH     1      38.924  59.833  -4.973  0.00  0.00    +0.000 OA
ENDROOT
TORSDOF 0
REMARK  Name = ../refined-set-2016/1fzk/1fzk_pocket.pdb
REMARK  322 active torsions:
REMARK  status: ('A' for Active; 'I' for Inactive)
REMARK    1  A    between atoms: _1  and  _3
REMARK    2  A    between atoms: _3  and  _4
REMARK    3  A    between atoms: _3  and  _6
REMARK    4  A    between atoms: _6  and  _7
REMARK    5  A    between atoms: _10  and  _12
REMARK    6  A    between atoms: _12  and  _13
REMARK    7  A    between atoms: _12  and  _15
REMARK    8  A    between atoms: _15  and  _16
REMARK    9  A    between atoms: _16  and  _17
REMARK   10  A    between atoms: _17  and  _18
REMARK   11  A    between atoms: _27  and  _29
REMARK   12  A    between atoms: _29  and  _30
REMARK   13  A    between atoms: _29  and  _32
REMARK   14  A    between atoms: _32  and  _33
REMARK   15  A    between atoms: _38  and  _39
REMARK   16  A    between atoms: _41  and  _43
REMARK   17  A    between atoms: _43  and  _44
REMARK   18  A    between atoms: _43  and  _46
REMARK   19  A    between atoms: _46  and  _47
REMARK   20  A    between atoms: _53  and  _55
REMARK   21  A    between atoms: _55  and  _56
REMARK   22  A    between atoms: _55  and  _58
REMARK   23  A    between atoms: _61  and  _63
REMARK   24  A    between atoms: _63  and  _64
REMARK   25  A    between atoms: _63  and  _66
REMARK   26  A    between atoms: _66  and  _67
REMARK   27  A    between atoms: _70  and  _72
REMARK   28  A    between atoms: _72  and  _73
REMARK   29  A    between atoms: _72  and  _75
REMARK   30  A    between atoms: _75  and  _76
REMARK   31  A    between atoms: _81  and  _82
REMARK   32  A    between atoms: _84  and  _86
REMARK   33  A    between atoms: _86  and  _87
REMARK   34  A    between atoms: _86  and  _89
REMARK   35  A    between atoms: _89  and  _90
REMARK   36  A    between atoms: _90  and  _91
REMARK   37  A    between atoms: _93  and  _95
REMARK   38  A    between atoms: _95  and  _96
REMARK   39  A    between atoms: _95  and  _98
REMARK   40  A    between atoms: _98  and  _99
REMARK   41  A    between atoms: _99  and  _100
REMARK   42  A    between atoms: _103  and  _105
REMARK   43  A    between atoms: _105  and  _106
REMARK   44  A    between atoms: _105  and  _108
REMARK   45  A    between atoms: _111  and  _113
REMARK   46  A    between atoms: _113  and  _114
REMARK   47  A    between atoms: _116  and  _118
REMARK   48  A    between atoms: _118  and  _119
REMARK   49  A    between atoms: _118  and  _121
REMARK   50  A    between atoms: _124  and  _126
REMARK   51  A    between atoms: _126  and  _127
REMARK   52  A    between atoms: _126  and  _129
REMARK   53  A    between atoms: _129  and  _130
REMARK   54  A    between atoms: _136  and  _138
REMARK   55  A    between atoms: _138  and  _139
REMARK   56  A    between atoms: _138  and  _141
REMARK   57  A    between atoms: _144  and  _146
REMARK   58  A    between atoms: _146  and  _147
REMARK   59  A    between atoms: _146  and  _149
REMARK   60  A    between atoms: _149  and  _150
REMARK   61  A    between atoms: _155  and  _156
REMARK   62  A    between atoms: _158  and  _160
REMARK   63  A    between atoms: _160  and  _161
REMARK   64  A    between atoms: _160  and  _163
REMARK   65  A    between atoms: _163  and  _164
REMARK   66  A    between atoms: _164  and  _165
REMARK   67  A    between atoms: _167  and  _169
REMARK   68  A    between atoms: _169  and  _170
REMARK   69  A    between atoms: _169  and  _172
REMARK   70  A    between atoms: _172  and  _173
REMARK   71  A    between atoms: _173  and  _174
REMARK   72  A    between atoms: _177  and  _179
REMARK   73  A    between atoms: _179  and  _180
REMARK   74  A    between atoms: _179  and  _182
REMARK   75  A    between atoms: _182  and  _183
REMARK   76  A    between atoms: _183  and  _184
REMARK   77  A    between atoms: _187  and  _189
REMARK   78  A    between atoms: _189  and  _190
REMARK   79  A    between atoms: _189  and  _192
REMARK   80  A    between atoms: _192  and  _193
REMARK   81  A    between atoms: _198  and  _199
REMARK   82  A    between atoms: _201  and  _203
REMARK   83  A    between atoms: _203  and  _204
REMARK   84  A    between atoms: _203  and  _206
REMARK   85  A    between atoms: _206  and  _207
REMARK   86  A    between atoms: _207  and  _208
REMARK   87  A    between atoms: _208  and  _209
REMARK   88  A    between atoms: _218  and  _220
REMARK   89  A    between atoms: _220  and  _221
REMARK   90  A    between atoms: _220  and  _223
REMARK   91  A    between atoms: _223  and  _224
REMARK   92  A    between atoms: _224  and  _225
REMARK   93  A    between atoms: _228  and  _230
REMARK   94  A    between atoms: _230  and  _231
REMARK   95  A    between atoms: _230  and  _233
REMARK   96  A    between atoms: _233  and  _234
REMARK   97  A    between atoms: _234  and  _235
REMARK   98  A    between atoms: _240  and  _242
REMARK   99  A    between atoms: _242  and  _243
REMARK  100  A    between atoms: _242  and  _245
REMARK  101  A    between atoms: _245  and  _246
REMARK  102  A    between atoms: _246  and  _247
REMARK  103  A    between atoms: _247  and  _248
REMARK  104  A    between atoms: _248  and  _249
REMARK  105  A    between atoms: _253  and  _255
REMARK  106  A    between atoms: _255  and  _256
REMARK  107  A    between atoms: _259  and  _261
REMARK  108  A    between atoms: _261  and  _262
REMARK  109  A    between atoms: _264  and  _266
REMARK  110  A    between atoms: _266  and  _267
REMARK  111  A    between atoms: _266  and  _269
REMARK  112  A    between atoms: _269  and  _270
REMARK  113  A    between atoms: _275  and  _277
REMARK  114  A    between atoms: _277  and  _278
REMARK  115  A    between atoms: _277  and  _280
REMARK  116  A    between atoms: _280  and  _281
REMARK  117  A    between atoms: _281  and  _282
REMARK  118  A    between atoms: _285  and  _287
REMARK  119  A    between atoms: _287  and  _288
REMARK  120  A    between atoms: _287  and  _290
REMARK  121  A    between atoms: _290  and  _291
REMARK  122  A    between atoms: _291  and  _292
REMARK  123  A    between atoms: _297  and  _299
REMARK  124  A    between atoms: _299  and  _300
REMARK  125  A    between atoms: _299  and  _302
REMARK  126  A    between atoms: _302  and  _303
REMARK  127  A    between atoms: _305  and  _307
REMARK  128  A    between atoms: _307  and  _308
REMARK  129  A    between atoms: _307  and  _310
REMARK  130  A    between atoms: _310  and  _311
REMARK  131  A    between atoms: _317  and  _319
REMARK  132  A    between atoms: _319  and  _320
REMARK  133  A    between atoms: _319  and  _322
REMARK  134  A    between atoms: _325  and  _327
REMARK  135  A    between atoms: _327  and  _328
REMARK  136  A    between atoms: _327  and  _330
REMARK  137  A    between atoms: _330  and  _331
REMARK  138  A    between atoms: _334  and  _336
REMARK  139  A    between atoms: _336  and  _337
REMARK  140  A    between atoms: _336  and  _339
REMARK  141  A    between atoms: _339  and  _340
REMARK  142  A    between atoms: _343  and  _345
REMARK  143  A    between atoms: _345  and  _346
REMARK  144  A    between atoms: _345  and  _348
REMARK  145  A    between atoms: _348  and  _349
REMARK  146  A    between atoms: _352  and  _354
REMARK  147  A    between atoms: _354  and  _355
REMARK  148  A    between atoms: _354  and  _357
REMARK  149  A    between atoms: _357  and  _358
REMARK  150  A    between atoms: _361  and  _363
REMARK  151  A    between atoms: _363  and  _364
REMARK  152  A    between atoms: _363  and  _366
REMARK  153  A    between atoms: _366  and  _367
REMARK  154  A    between atoms: _372  and  _373
REMARK  155  A    between atoms: _375  and  _377
REMARK  156  A    between atoms: _377  and  _378
REMARK  157  A    between atoms: _377  and  _380
REMARK  158  A    between atoms: _380  and  _381
REMARK  159  A    between atoms: _386  and  _387
REMARK  160  A    between atoms: _389  and  _391
REMARK  161  A    between atoms: _391  and  _392
REMARK  162  A    between atoms: _391  and  _394
REMARK  163  A    between atoms: _394  and  _395
REMARK  164  A    between atoms: _398  and  _400
REMARK  165  A    between atoms: _400  and  _401
REMARK  166  A    between atoms: _400  and  _403
REMARK  167  A    between atoms: _403  and  _404
REMARK  168  A    between atoms: _404  and  _405
REMARK  169  A    between atoms: _410  and  _412
REMARK  170  A    between atoms: _412  and  _413
REMARK  171  A    between atoms: _412  and  _415
REMARK  172  A    between atoms: _418  and  _420
REMARK  173  A    between atoms: _420  and  _421
REMARK  174  A    between atoms: _420  and  _423
REMARK  175  A    between atoms: _423  and  _424
REMARK  176  A    between atoms: _427  and  _429
REMARK  177  A    between atoms: _429  and  _430
REMARK  178  A    between atoms: _429  and  _432
REMARK  179  A    between atoms: _432  and  _433
REMARK  180  A    between atoms: _435  and  _437
REMARK  181  A    between atoms: _437  and  _438
REMARK  182  A    between atoms: _440  and  _442
REMARK  183  A    between atoms: _442  and  _443
REMARK  184  A    between atoms: _442  and  _445
REMARK  185  A    between atoms: _445  and  _446
REMARK  186  A    between atoms: _446  and  _744
REMARK  187  A    between atoms: _447  and  _449
REMARK  188  A    between atoms: _449  and  _450
REMARK  189  A    between atoms: _449  and  _452
REMARK  190  A    between atoms: _452  and  _453
REMARK  191  A    between atoms: _458  and  _459
REMARK  192  A    between atoms: _461  and  _463
REMARK  193  A    between atoms: _463  and  _464
REMARK  194  A    between atoms: _463  and  _466
REMARK  195  A    between atoms: _466  and  _467
REMARK  196  A    between atoms: _467  and  _468
REMARK  197  A    between atoms: _473  and  _475
REMARK  198  A    between atoms: _475  and  _476
REMARK  199  A    between atoms: _475  and  _478
REMARK  200  A    between atoms: _478  and  _479
REMARK  201  A    between atoms: _479  and  _480
REMARK  202  A    between atoms: _485  and  _487
REMARK  203  A    between atoms: _487  and  _488
REMARK  204  A    between atoms: _487  and  _490
REMARK  205  A    between atoms: _490  and  _491
REMARK  206  A    between atoms: _496  and  _497
REMARK  207  A    between atoms: _499  and  _501
REMARK  208  A    between atoms: _501  and  _502
REMARK  209  A    between atoms: _505  and  _507
REMARK  210  A    between atoms: _507  and  _508
REMARK  211  A    between atoms: _507  and  _510
REMARK  212  A    between atoms: _510  and  _511
REMARK  213  A    between atoms: _516  and  _517
REMARK  214  A    between atoms: _519  and  _521
REMARK  215  A    between atoms: _521  and  _522
REMARK  216  A    between atoms: _521  and  _524
REMARK  217  A    between atoms: _524  and  _525
REMARK  218  A    between atoms: _530  and  _531
REMARK  219  A    between atoms: _533  and  _535
REMARK  220  A    between atoms: _535  and  _536
REMARK  221  A    between atoms: _535  and  _538
REMARK  222  A    between atoms: _538  and  _539
REMARK  223  A    between atoms: _542  and  _544
REMARK  224  A    between atoms: _544  and  _545
REMARK  225  A    between atoms: _544  and  _547
REMARK  226  A    between atoms: _547  and  _548
REMARK  227  A    between atoms: _558  and  _560
REMARK  228  A    between atoms: _560  and  _561
REMARK  229  A    between atoms: _564  and  _566
REMARK  230  A    between atoms: _566  and  _567
REMARK  231  A    between atoms: _570  and  _572
REMARK  232  A    between atoms: _572  and  _573
REMARK  233  A    between atoms: _572  and  _575
REMARK  234  A    between atoms: _575  and  _576
REMARK  235  A    between atoms: _579  and  _581
REMARK  236  A    between atoms: _581  and  _582
REMARK  237  A    between atoms: _581  and  _584
REMARK  238  A    between atoms: _584  and  _585
REMARK  239  A    between atoms: _588  and  _590
REMARK  240  A    between atoms: _590  and  _591
REMARK  241  A    between atoms: _590  and  _593
REMARK  242  A    between atoms: _593  and  _594
REMARK  243  A    between atoms: _597  and  _599
REMARK  244  A    between atoms: _599  and  _600
REMARK  245  A    between atoms: _599  and  _602
REMARK  246  A    between atoms: _602  and  _603
REMARK  247  A    between atoms: _603  and  _604
REMARK  248  A    between atoms: _604  and  _605
REMARK  249  A    between atoms: _605  and  _606
REMARK  250  A    between atoms: _610  and  _612
REMARK  251  A    between atoms: _612  and  _613
REMARK  252  A    between atoms: _612  and  _615
REMARK  253  A    between atoms: _615  and  _616
REMARK  254  A    between atoms: _621  and  _623
REMARK  255  A    between atoms: _623  and  _624
REMARK  256  A    between atoms: _623  and  _626
REMARK  257  A    between atoms: _626  and  _627
REMARK  258  A    between atoms: _627  and  _628
REMARK  259  A    between atoms: _628  and  _629
REMARK  260  A    between atoms: _629  and  _630
REMARK  261  A    between atoms: _634  and  _636
REMARK  262  A    between atoms: _636  and  _637
REMARK  263  A    between atoms: _636  and  _639
REMARK  264  A    between atoms: _639  and  _640
REMARK  265  A    between atoms: _650  and  _652
REMARK  266  A    between atoms: _652  and  _653
REMARK  267  A    between atoms: _656  and  _658
REMARK  268  A    between atoms: _658  and  _659
REMARK  269  A    between atoms: _661  and  _663
REMARK  270  A    between atoms: _663  and  _664
REMARK  271  A    between atoms: _667  and  _669
REMARK  272  A    between atoms: _669  and  _670
REMARK  273  A    between atoms: _673  and  _675
REMARK  274  A    between atoms: _675  and  _676
REMARK  275  A    between atoms: _675  and  _678
REMARK  276  A    between atoms: _678  and  _679
REMARK  277  A    between atoms: _684  and  _685
REMARK  278  A    between atoms: _687  and  _689
REMARK  279  A    between atoms: _689  and  _690
REMARK  280  A    between atoms: _689  and  _692
REMARK  281  A    between atoms: _692  and  _693
REMARK  282  A    between atoms: _698  and  _699
REMARK  283  A    between atoms: _701  and  _703
REMARK  284  A    between atoms: _703  and  _704
REMARK  285  A    between atoms: _703  and  _706
REMARK  286  A    between atoms: _706  and  _707
REMARK  287  A    between atoms: _712  and  _713
REMARK  288  A    between atoms: _715  and  _717
REMARK  289  A    between atoms: _717  and  _718
REMARK  290  A    between atoms: _717  and  _720
REMARK  291  A    between atoms: _720  and  _721
REMARK  292  A    between atoms: _724  and  _726
REMARK  293  A    between atoms: _726  and  _727
REMARK  294  A    between atoms: _729  and  _731
REMARK  295  A    between atoms: _731  and  _732
REMARK  296  A    between atoms: _731  and  _734
REMARK  297  A    between atoms: _734  and  _735
REMARK  298  A    between atoms: _738  and  _740
REMARK  299  A    between atoms: _740  and  _741
REMARK  300  A    between atoms: _740  and  _743
REMARK  301  A    between atoms: _743  and  _744
REMARK  302  A    between atoms: _745  and  _747
REMARK  303  A    between atoms: _747  and  _748
REMARK  304  A    between atoms: _747  and  _750
REMARK  305  A    between atoms: _753  and  _755
REMARK  306  A    between atoms: _755  and  _756
REMARK  307  A    between atoms: _755  and  _758
REMARK  308  A    between atoms: _758  and  _759
REMARK  309  A    between atoms: _759  and  _760
REMARK  310  A    between atoms: _763  and  _765
REMARK  311  A    between atoms: _765  and  _766
REMARK  312  A    between atoms: _765  and  _768
REMARK  313  A    between atoms: _768  and  _769
REMARK  314  A    between atoms: _779  and  _781
REMARK  315  A    between atoms: _781  and  _782
REMARK  316  A    between atoms: _781  and  _784
REMARK  317  A    between atoms: _784  and  _785
REMARK  318  A    between atoms: _788  and  _790
REMARK  319  A    between atoms: _790  and  _791
REMARK  320  A    between atoms: _790  and  _793
REMARK  321  A    between atoms: _793  and  _794
REMARK  322  A    between atoms: _799  and  _800
REMARK                            x       y       z     vdW  Elec       q    Type
REMARK                         _______ _______ _______ _____ _____    ______ ____
ROOT
ATOM      1  O   HOH     1      46.014  61.332   7.970  0.00  0.00    +0.000 OA
ENDROOT
TORSDOF 0
REMARK  Name = ../refined-set-2016/1fzk/1fzk_pocket.pdb
REMARK  322 active torsions:
REMARK  status: ('A' for Active; 'I' for Inactive)
REMARK    1  A    between atoms: _1  and  _3
REMARK    2  A    between atoms: _3  and  _4
REMARK    3  A    between atoms: _3  and  _6
REMARK    4  A    between atoms: _6  and  _7
REMARK    5  A    between atoms: _10  and  _12
REMARK    6  A    between atoms: _12  and  _13
REMARK    7  A    between atoms: _12  and  _15
REMARK    8  A    between atoms: _15  and  _16
REMARK    9  A    between atoms: _16  and  _17
REMARK   10  A    between atoms: _17  and  _18
REMARK   11  A    between atoms: _27  and  _29
REMARK   12  A    between atoms: _29  and  _30
REMARK   13  A    between atoms: _29  and  _32
REMARK   14  A    between atoms: _32  and  _33
REMARK   15  A    between atoms: _38  and  _39
REMARK   16  A    between atoms: _41  and  _43
REMARK   17  A    between atoms: _43  and  _44
REMARK   18  A    between atoms: _43  and  _46
REMARK   19  A    between atoms: _46  and  _47
REMARK   20  A    between atoms: _53  and  _55
REMARK   21  A    between atoms: _55  and  _56
REMARK   22  A    between atoms: _55  and  _58
REMARK   23  A    between atoms: _61  and  _63
REMARK   24  A    between atoms: _63  and  _64
REMARK   25  A    between atoms: _63  and  _66
REMARK   26  A    between atoms: _66  and  _67
REMARK   27  A    between atoms: _70  and  _72
REMARK   28  A    between atoms: _72  and  _73
REMARK   29  A    between atoms: _72  and  _75
REMARK   30  A    between atoms: _75  and  _76
REMARK   31  A    between atoms: _81  and  _82
REMARK   32  A    between atoms: _84  and  _86
REMARK   33  A    between atoms: _86  and  _87
REMARK   34  A    between atoms: _86  and  _89
REMARK   35  A    between atoms: _89  and  _90
REMARK   36  A    between atoms: _90  and  _91
REMARK   37  A    between atoms: _93  and  _95
REMARK   38  A    between atoms: _95  and  _96
REMARK   39  A    between atoms: _95  and  _98
REMARK   40  A    between atoms: _98  and  _99
REMARK   41  A    between atoms: _99  and  _100
REMARK   42  A    between atoms: _103  and  _105
REMARK   43  A    between atoms: _105  and  _106
REMARK   44  A    between atoms: _105  and  _108
REMARK   45  A    between atoms: _111  and  _113
REMARK   46  A    between atoms: _113  and  _114
REMARK   47  A    between atoms: _116  and  _118
REMARK   48  A    between atoms: _118  and  _119
REMARK   49  A    between atoms: _118  and  _121
REMARK   50  A    between atoms: _124  and  _126
REMARK   51  A    between atoms: _126  and  _127
REMARK   52  A    between atoms: _126  and  _129
REMARK   53  A    between atoms: _129  and  _130
REMARK   54  A    between atoms: _136  and  _138
REMARK   55  A    between atoms: _138  and  _139
REMARK   56  A    between atoms: _138  and  _141
REMARK   57  A    between atoms: _144  and  _146
REMARK   58  A    between atoms: _146  and  _147
REMARK   59  A    between atoms: _146  and  _149
REMARK   60  A    between atoms: _149  and  _150
REMARK   61  A    between atoms: _155  and  _156
REMARK   62  A    between atoms: _158  and  _160
REMARK   63  A    between atoms: _160  and  _161
REMARK   64  A    between atoms: _160  and  _163
REMARK   65  A    between atoms: _163  and  _164
REMARK   66  A    between atoms: _164  and  _165
REMARK   67  A    between atoms: _167  and  _169
REMARK   68  A    between atoms: _169  and  _170
REMARK   69  A    between atoms: _169  and  _172
REMARK   70  A    between atoms: _172  and  _173
REMARK   71  A    between atoms: _173  and  _174
REMARK   72  A    between atoms: _177  and  _179
REMARK   73  A    between atoms: _179  and  _180
REMARK   74  A    between atoms: _179  and  _182
REMARK   75  A    between atoms: _182  and  _183
REMARK   76  A    between atoms: _183  and  _184
REMARK   77  A    between atoms: _187  and  _189
REMARK   78  A    between atoms: _189  and  _190
REMARK   79  A    between atoms: _189  and  _192
REMARK   80  A    between atoms: _192  and  _193
REMARK   81  A    between atoms: _198  and  _199
REMARK   82  A    between atoms: _201  and  _203
REMARK   83  A    between atoms: _203  and  _204
REMARK   84  A    between atoms: _203  and  _206
REMARK   85  A    between atoms: _206  and  _207
REMARK   86  A    between atoms: _207  and  _208
REMARK   87  A    between atoms: _208  and  _209
REMARK   88  A    between atoms: _218  and  _220
REMARK   89  A    between atoms: _220  and  _221
REMARK   90  A    between atoms: _220  and  _223
REMARK   91  A    between atoms: _223  and  _224
REMARK   92  A    between atoms: _224  and  _225
REMARK   93  A    between atoms: _228  and  _230
REMARK   94  A    between atoms: _230  and  _231
REMARK   95  A    between atoms: _230  and  _233
REMARK   96  A    between atoms: _233  and  _234
REMARK   97  A    between atoms: _234  and  _235
REMARK   98  A    between atoms: _240  and  _242
REMARK   99  A    between atoms: _242  and  _243
REMARK  100  A    between atoms: _242  and  _245
REMARK  101  A    between atoms: _245  and  _246
REMARK  102  A    between atoms: _246  and  _247
REMARK  103  A    between atoms: _247  and  _248
REMARK  104  A    between atoms: _248  and  _249
REMARK  105  A    between atoms: _253  and  _255
REMARK  106  A    between atoms: _255  and  _256
REMARK  107  A    between atoms: _259  and  _261
REMARK  108  A    between atoms: _261  and  _262
REMARK  109  A    between atoms: _264  and  _266
REMARK  110  A    between atoms: _266  and  _267
REMARK  111  A    between atoms: _266  and  _269
REMARK  112  A    between atoms: _269  and  _270
REMARK  113  A    between atoms: _275  and  _277
REMARK  114  A    between atoms: _277  and  _278
REMARK  115  A    between atoms: _277  and  _280
REMARK  116  A    between atoms: _280  and  _281
REMARK  117  A    between atoms: _281  and  _282
REMARK  118  A    between atoms: _285  and  _287
REMARK  119  A    between atoms: _287  and  _288
REMARK  120  A    between atoms: _287  and  _290
REMARK  121  A    between atoms: _290  and  _291
REMARK  122  A    between atoms: _291  and  _292
REMARK  123  A    between atoms: _297  and  _299
REMARK  124  A    between atoms: _299  and  _300
REMARK  125  A    between atoms: _299  and  _302
REMARK  126  A    between atoms: _302  and  _303
REMARK  127  A    between atoms: _305  and  _307
REMARK  128  A    between atoms: _307  and  _308
REMARK  129  A    between atoms: _307  and  _310
REMARK  130  A    between atoms: _310  and  _311
REMARK  131  A    between atoms: _317  and  _319
REMARK  132  A    between atoms: _319  and  _320
REMARK  133  A    between atoms: _319  and  _322
REMARK  134  A    between atoms: _325  and  _327
REMARK  135  A    between atoms: _327  and  _328
REMARK  136  A    between atoms: _327  and  _330
REMARK  137  A    between atoms: _330  and  _331
REMARK  138  A    between atoms: _334  and  _336
REMARK  139  A    between atoms: _336  and  _337
REMARK  140  A    between atoms: _336  and  _339
REMARK  141  A    between atoms: _339  and  _340
REMARK  142  A    between atoms: _343  and  _345
REMARK  143  A    between atoms: _345  and  _346
REMARK  144  A    between atoms: _345  and  _348
REMARK  145  A    between atoms: _348  and  _349
REMARK  146  A    between atoms: _352  and  _354
REMARK  147  A    between atoms: _354  and  _355
REMARK  148  A    between atoms: _354  and  _357
REMARK  149  A    between atoms: _357  and  _358
REMARK  150  A    between atoms: _361  and  _363
REMARK  151  A    between atoms: _363  and  _364
REMARK  152  A    between atoms: _363  and  _366
REMARK  153  A    between atoms: _366  and  _367
REMARK  154  A    between atoms: _372  and  _373
REMARK  155  A    between atoms: _375  and  _377
REMARK  156  A    between atoms: _377  and  _378
REMARK  157  A    between atoms: _377  and  _380
REMARK  158  A    between atoms: _380  and  _381
REMARK  159  A    between atoms: _386  and  _387
REMARK  160  A    between atoms: _389  and  _391
REMARK  161  A    between atoms: _391  and  _392
REMARK  162  A    between atoms: _391  and  _394
REMARK  163  A    between atoms: _394  and  _395
REMARK  164  A    between atoms: _398  and  _400
REMARK  165  A    between atoms: _400  and  _401
REMARK  166  A    between atoms: _400  and  _403
REMARK  167  A    between atoms: _403  and  _404
REMARK  168  A    between atoms: _404  and  _405
REMARK  169  A    between atoms: _410  and  _412
REMARK  170  A    between atoms: _412  and  _413
REMARK  171  A    between atoms: _412  and  _415
REMARK  172  A    between atoms: _418  and  _420
REMARK  173  A    between atoms: _420  and  _421
REMARK  174  A    between atoms: _420  and  _423
REMARK  175  A    between atoms: _423  and  _424
REMARK  176  A    between atoms: _427  and  _429
REMARK  177  A    between atoms: _429  and  _430
REMARK  178  A    between atoms: _429  and  _432
REMARK  179  A    between atoms: _432  and  _433
REMARK  180  A    between atoms: _435  and  _437
REMARK  181  A    between atoms: _437  and  _438
REMARK  182  A    between atoms: _440  and  _442
REMARK  183  A    between atoms: _442  and  _443
REMARK  184  A    between atoms: _442  and  _445
REMARK  185  A    between atoms: _445  and  _446
REMARK  186  A    between atoms: _446  and  _744
REMARK  187  A    between atoms: _447  and  _449
REMARK  188  A    between atoms: _449  and  _450
REMARK  189  A    between atoms: _449  and  _452
REMARK  190  A    between atoms: _452  and  _453
REMARK  191  A    between atoms: _458  and  _459
REMARK  192  A    between atoms: _461  and  _463
REMARK  193  A    between atoms: _463  and  _464
REMARK  194  A    between atoms: _463  and  _466
REMARK  195  A    between atoms: _466  and  _467
REMARK  196  A    between atoms: _467  and  _468
REMARK  197  A    between atoms: _473  and  _475
REMARK  198  A    between atoms: _475  and  _476
REMARK  199  A    between atoms: _475  and  _478
REMARK  200  A    between atoms: _478  and  _479
REMARK  201  A    between atoms: _479  and  _480
REMARK  202  A    between atoms: _485  and  _487
REMARK  203  A    between atoms: _487  and  _488
REMARK  204  A    between atoms: _487  and  _490
REMARK  205  A    between atoms: _490  and  _491
REMARK  206  A    between atoms: _496  and  _497
REMARK  207  A    between atoms: _499  and  _501
REMARK  208  A    between atoms: _501  and  _502
REMARK  209  A    between atoms: _505  and  _507
REMARK  210  A    between atoms: _507  and  _508
REMARK  211  A    between atoms: _507  and  _510
REMARK  212  A    between atoms: _510  and  _511
REMARK  213  A    between atoms: _516  and  _517
REMARK  214  A    between atoms: _519  and  _521
REMARK  215  A    between atoms: _521  and  _522
REMARK  216  A    between atoms: _521  and  _524
REMARK  217  A    between atoms: _524  and  _525
REMARK  218  A    between atoms: _530  and  _531
REMARK  219  A    between atoms: _533  and  _535
REMARK  220  A    between atoms: _535  and  _536
REMARK  221  A    between atoms: _535  and  _538
REMARK  222  A    between atoms: _538  and  _539
REMARK  223  A    between atoms: _542  and  _544
REMARK  224  A    between atoms: _544  and  _545
REMARK  225  A    between atoms: _544  and  _547
REMARK  226  A    between atoms: _547  and  _548
REMARK  227  A    between atoms: _558  and  _560
REMARK  228  A    between atoms: _560  and  _561
REMARK  229  A    between atoms: _564  and  _566
REMARK  230  A    between atoms: _566  and  _567
REMARK  231  A    between atoms: _570  and  _572
REMARK  232  A    between atoms: _572  and  _573
REMARK  233  A    between atoms: _572  and  _575
REMARK  234  A    between atoms: _575  and  _576
REMARK  235  A    between atoms: _579  and  _581
REMARK  236  A    between atoms: _581  and  _582
REMARK  237  A    between atoms: _581  and  _584
REMARK  238  A    between atoms: _584  and  _585
REMARK  239  A    between atoms: _588  and  _590
REMARK  240  A    between atoms: _590  and  _591
REMARK  241  A    between atoms: _590  and  _593
REMARK  242  A    between atoms: _593  and  _594
REMARK  243  A    between atoms: _597  and  _599
REMARK  244  A    between atoms: _599  and  _600
REMARK  245  A    between atoms: _599  and  _602
REMARK  246  A    between atoms: _602  and  _603
REMARK  247  A    between atoms: _603  and  _604
REMARK  248  A    between atoms: _604  and  _605
REMARK  249  A    between atoms: _605  and  _606
REMARK  250  A    between atoms: _610  and  _612
REMARK  251  A    between atoms: _612  and  _613
REMARK  252  A    between atoms: _612  and  _615
REMARK  253  A    between atoms: _615  and  _616
REMARK  254  A    between atoms: _621  and  _623
REMARK  255  A    between atoms: _623  and  _624
REMARK  256  A    between atoms: _623  and  _626
REMARK  257  A    between atoms: _626  and  _627
REMARK  258  A    between atoms: _627  and  _628
REMARK  259  A    between atoms: _628  and  _629
REMARK  260  A    between atoms: _629  and  _630
REMARK  261  A    between atoms: _634  and  _636
REMARK  262  A    between atoms: _636  and  _637
REMARK  263  A    between atoms: _636  and  _639
REMARK  264  A    between atoms: _639  and  _640
REMARK  265  A    between atoms: _650  and  _652
REMARK  266  A    between atoms: _652  and  _653
REMARK  267  A    between atoms: _656  and  _658
REMARK  268  A    between atoms: _658  and  _659
REMARK  269  A    between atoms: _661  and  _663
REMARK  270  A    between atoms: _663  and  _664
REMARK  271  A    between atoms: _667  and  _669
REMARK  272  A    between atoms: _669  and  _670
REMARK  273  A    between atoms: _673  and  _675
REMARK  274  A    between atoms: _675  and  _676
REMARK  275  A    between atoms: _675  and  _678
REMARK  276  A    between atoms: _678  and  _679
REMARK  277  A    between atoms: _684  and  _685
REMARK  278  A    between atoms: _687  and  _689
REMARK  279  A    between atoms: _689  and  _690
REMARK  280  A    between atoms: _689  and  _692
REMARK  281  A    between atoms: _692  and  _693
REMARK  282  A    between atoms: _698  and  _699
REMARK  283  A    between atoms: _701  and  _703
REMARK  284  A    between atoms: _703  and  _704
REMARK  285  A    between atoms: _703  and  _706
REMARK  286  A    between atoms: _706  and  _707
REMARK  287  A    between atoms: _712  and  _713
REMARK  288  A    between atoms: _715  and  _717
REMARK  289  A    between atoms: _717  and  _718
REMARK  290  A    between atoms: _717  and  _720
REMARK  291  A    between atoms: _720  and  _721
REMARK  292  A    between atoms: _724  and  _726
REMARK  293  A    between atoms: _726  and  _727
REMARK  294  A    between atoms: _729  and  _731
REMARK  295  A    between atoms: _731  and  _732
REMARK  296  A    between atoms: _731  and  _734
REMARK  297  A    between atoms: _734  and  _735
REMARK  298  A    between atoms: _738  and  _740
REMARK  299  A    between atoms: _740  and  _741
REMARK  300  A    between atoms: _740  and  _743
REMARK  301  A    between atoms: _743  and  _744
REMARK  302  A    between atoms: _745  and  _747
REMARK  303  A    between atoms: _747  and  _748
REMARK  304  A    between atoms: _747  and  _750
REMARK  305  A    between atoms: _753  and  _755
REMARK  306  A    between atoms: _755  and  _756
REMARK  307  A    between atoms: _755  and  _758
REMARK  308  A    between atoms: _758  and  _759
REMARK  309  A    between atoms: _759  and  _760
REMARK  310  A    between atoms: _763  and  _765
REMARK  311  A    between atoms: _765  and  _766
REMARK  312  A    between atoms: _765  and  _768
REMARK  313  A    between atoms: _768  and  _769
REMARK  314  A    between atoms: _779  and  _781
REMARK  315  A    between atoms: _781  and  _782
REMARK  316  A    between atoms: _781  and  _784
REMARK  317  A    between atoms: _784  and  _785
REMARK  318  A    between atoms: _788  and  _790
REMARK  319  A    between atoms: _790  and  _791
REMARK  320  A    between atoms: _790  and  _793
REMARK  321  A    between atoms: _793  and  _794
REMARK  322  A    between atoms: _799  and  _800
REMARK                            x       y       z     vdW  Elec       q    Type
REMARK                         _______ _______ _______ _____ _____    ______ ____
ROOT
ATOM      1  O   HOH     1      46.510  61.044  -9.988  0.00  0.00    +0.000 OA
ENDROOT
TORSDOF 0
REMARK  Name = ../refined-set-2016/1fzk/1fzk_pocket.pdb
REMARK  322 active torsions:
REMARK  status: ('A' for Active; 'I' for Inactive)
REMARK    1  A    between atoms: _1  and  _3
REMARK    2  A    between atoms: _3  and  _4
REMARK    3  A    between atoms: _3  and  _6
REMARK    4  A    between atoms: _6  and  _7
REMARK    5  A    between atoms: _10  and  _12
REMARK    6  A    between atoms: _12  and  _13
REMARK    7  A    between atoms: _12  and  _15
REMARK    8  A    between atoms: _15  and  _16
REMARK    9  A    between atoms: _16  and  _17
REMARK   10  A    between atoms: _17  and  _18
REMARK   11  A    between atoms: _27  and  _29
REMARK   12  A    between atoms: _29  and  _30
REMARK   13  A    between atoms: _29  and  _32
REMARK   14  A    between atoms: _32  and  _33
REMARK   15  A    between atoms: _38  and  _39
REMARK   16  A    between atoms: _41  and  _43
REMARK   17  A    between atoms: _43  and  _44
REMARK   18  A    between atoms: _43  and  _46
REMARK   19  A    between atoms: _46  and  _47
REMARK   20  A    between atoms: _53  and  _55
REMARK   21  A    between atoms: _55  and  _56
REMARK   22  A    between atoms: _55  and  _58
REMARK   23  A    between atoms: _61  and  _63
REMARK   24  A    between atoms: _63  and  _64
REMARK   25  A    between atoms: _63  and  _66
REMARK   26  A    between atoms: _66  and  _67
REMARK   27  A    between atoms: _70  and  _72
REMARK   28  A    between atoms: _72  and  _73
REMARK   29  A    between atoms: _72  and  _75
REMARK   30  A    between atoms: _75  and  _76
REMARK   31  A    between atoms: _81  and  _82
REMARK   32  A    between atoms: _84  and  _86
REMARK   33  A    between atoms: _86  and  _87
REMARK   34  A    between atoms: _86  and  _89
REMARK   35  A    between atoms: _89  and  _90
REMARK   36  A    between atoms: _90  and  _91
REMARK   37  A    between atoms: _93  and  _95
REMARK   38  A    between atoms: _95  and  _96
REMARK   39  A    between atoms: _95  and  _98
REMARK   40  A    between atoms: _98  and  _99
REMARK   41  A    between atoms: _99  and  _100
REMARK   42  A    between atoms: _103  and  _105
REMARK   43  A    between atoms: _105  and  _106
REMARK   44  A    between atoms: _105  and  _108
REMARK   45  A    between atoms: _111  and  _113
REMARK   46  A    between atoms: _113  and  _114
REMARK   47  A    between atoms: _116  and  _118
REMARK   48  A    between atoms: _118  and  _119
REMARK   49  A    between atoms: _118  and  _121
REMARK   50  A    between atoms: _124  and  _126
REMARK   51  A    between atoms: _126  and  _127
REMARK   52  A    between atoms: _126  and  _129
REMARK   53  A    between atoms: _129  and  _130
REMARK   54  A    between atoms: _136  and  _138
REMARK   55  A    between atoms: _138  and  _139
REMARK   56  A    between atoms: _138  and  _141
REMARK   57  A    between atoms: _144  and  _146
REMARK   58  A    between atoms: _146  and  _147
REMARK   59  A    between atoms: _146  and  _149
REMARK   60  A    between atoms: _149  and  _150
REMARK   61  A    between atoms: _155  and  _156
REMARK   62  A    between atoms: _158  and  _160
REMARK   63  A    between atoms: _160  and  _161
REMARK   64  A    between atoms: _160  and  _163
REMARK   65  A    between atoms: _163  and  _164
REMARK   66  A    between atoms: _164  and  _165
REMARK   67  A    between atoms: _167  and  _169
REMARK   68  A    between atoms: _169  and  _170
REMARK   69  A    between atoms: _169  and  _172
REMARK   70  A    between atoms: _172  and  _173
REMARK   71  A    between atoms: _173  and  _174
REMARK   72  A    between atoms: _177  and  _179
REMARK   73  A    between atoms: _179  and  _180
REMARK   74  A    between atoms: _179  and  _182
REMARK   75  A    between atoms: _182  and  _183
REMARK   76  A    between atoms: _183  and  _184
REMARK   77  A    between atoms: _187  and  _189
REMARK   78  A    between atoms: _189  and  _190
REMARK   79  A    between atoms: _189  and  _192
REMARK   80  A    between atoms: _192  and  _193
REMARK   81  A    between atoms: _198  and  _199
REMARK   82  A    between atoms: _201  and  _203
REMARK   83  A    between atoms: _203  and  _204
REMARK   84  A    between atoms: _203  and  _206
REMARK   85  A    between atoms: _206  and  _207
REMARK   86  A    between atoms: _207  and  _208
REMARK   87  A    between atoms: _208  and  _209
REMARK   88  A    between atoms: _218  and  _220
REMARK   89  A    between atoms: _220  and  _221
REMARK   90  A    between atoms: _220  and  _223
REMARK   91  A    between atoms: _223  and  _224
REMARK   92  A    between atoms: _224  and  _225
REMARK   93  A    between atoms: _228  and  _230
REMARK   94  A    between atoms: _230  and  _231
REMARK   95  A    between atoms: _230  and  _233
REMARK   96  A    between atoms: _233  and  _234
REMARK   97  A    between atoms: _234  and  _235
REMARK   98  A    between atoms: _240  and  _242
REMARK   99  A    between atoms: _242  and  _243
REMARK  100  A    between atoms: _242  and  _245
REMARK  101  A    between atoms: _245  and  _246
REMARK  102  A    between atoms: _246  and  _247
REMARK  103  A    between atoms: _247  and  _248
REMARK  104  A    between atoms: _248  and  _249
REMARK  105  A    between atoms: _253  and  _255
REMARK  106  A    between atoms: _255  and  _256
REMARK  107  A    between atoms: _259  and  _261
REMARK  108  A    between atoms: _261  and  _262
REMARK  109  A    between atoms: _264  and  _266
REMARK  110  A    between atoms: _266  and  _267
REMARK  111  A    between atoms: _266  and  _269
REMARK  112  A    between atoms: _269  and  _270
REMARK  113  A    between atoms: _275  and  _277
REMARK  114  A    between atoms: _277  and  _278
REMARK  115  A    between atoms: _277  and  _280
REMARK  116  A    between atoms: _280  and  _281
REMARK  117  A    between atoms: _281  and  _282
REMARK  118  A    between atoms: _285  and  _287
REMARK  119  A    between atoms: _287  and  _288
REMARK  120  A    between atoms: _287  and  _290
REMARK  121  A    between atoms: _290  and  _291
REMARK  122  A    between atoms: _291  and  _292
REMARK  123  A    between atoms: _297  and  _299
REMARK  124  A    between atoms: _299  and  _300
REMARK  125  A    between atoms: _299  and  _302
REMARK  126  A    between atoms: _302  and  _303
REMARK  127  A    between atoms: _305  and  _307
REMARK  128  A    between atoms: _307  and  _308
REMARK  129  A    between atoms: _307  and  _310
REMARK  130  A    between atoms: _310  and  _311
REMARK  131  A    between atoms: _317  and  _319
REMARK  132  A    between atoms: _319  and  _320
REMARK  133  A    between atoms: _319  and  _322
REMARK  134  A    between atoms: _325  and  _327
REMARK  135  A    between atoms: _327  and  _328
REMARK  136  A    between atoms: _327  and  _330
REMARK  137  A    between atoms: _330  and  _331
REMARK  138  A    between atoms: _334  and  _336
REMARK  139  A    between atoms: _336  and  _337
REMARK  140  A    between atoms: _336  and  _339
REMARK  141  A    between atoms: _339  and  _340
REMARK  142  A    between atoms: _343  and  _345
REMARK  143  A    between atoms: _345  and  _346
REMARK  144  A    between atoms: _345  and  _348
REMARK  145  A    between atoms: _348  and  _349
REMARK  146  A    between atoms: _352  and  _354
REMARK  147  A    between atoms: _354  and  _355
REMARK  148  A    between atoms: _354  and  _357
REMARK  149  A    between atoms: _357  and  _358
REMARK  150  A    between atoms: _361  and  _363
REMARK  151  A    between atoms: _363  and  _364
REMARK  152  A    between atoms: _363  and  _366
REMARK  153  A    between atoms: _366  and  _367
REMARK  154  A    between atoms: _372  and  _373
REMARK  155  A    between atoms: _375  and  _377
REMARK  156  A    between atoms: _377  and  _378
REMARK  157  A    between atoms: _377  and  _380
REMARK  158  A    between atoms: _380  and  _381
REMARK  159  A    between atoms: _386  and  _387
REMARK  160  A    between atoms: _389  and  _391
REMARK  161  A    between atoms: _391  and  _392
REMARK  162  A    between atoms: _391  and  _394
REMARK  163  A    between atoms: _394  and  _395
REMARK  164  A    between atoms: _398  and  _400
REMARK  165  A    between atoms: _400  and  _401
REMARK  166  A    between atoms: _400  and  _403
REMARK  167  A    between atoms: _403  and  _404
REMARK  168  A    between atoms: _404  and  _405
REMARK  169  A    between atoms: _410  and  _412
REMARK  170  A    between atoms: _412  and  _413
REMARK  171  A    between atoms: _412  and  _415
REMARK  172  A    between atoms: _418  and  _420
REMARK  173  A    between atoms: _420  and  _421
REMARK  174  A    between atoms: _420  and  _423
REMARK  175  A    between atoms: _423  and  _424
REMARK  176  A    between atoms: _427  and  _429
REMARK  177  A    between atoms: _429  and  _430
REMARK  178  A    between atoms: _429  and  _432
REMARK  179  A    between atoms: _432  and  _433
REMARK  180  A    between atoms: _435  and  _437
REMARK  181  A    between atoms: _437  and  _438
REMARK  182  A    between atoms: _440  and  _442
REMARK  183  A    between atoms: _442  and  _443
REMARK  184  A    between atoms: _442  and  _445
REMARK  185  A    between atoms: _445  and  _446
REMARK  186  A    between atoms: _446  and  _744
REMARK  187  A    between atoms: _447  and  _449
REMARK  188  A    between atoms: _449  and  _450
REMARK  189  A    between atoms: _449  and  _452
REMARK  190  A    between atoms: _452  and  _453
REMARK  191  A    between atoms: _458  and  _459
REMARK  192  A    between atoms: _461  and  _463
REMARK  193  A    between atoms: _463  and  _464
REMARK  194  A    between atoms: _463  and  _466
REMARK  195  A    between atoms: _466  and  _467
REMARK  196  A    between atoms: _467  and  _468
REMARK  197  A    between atoms: _473  and  _475
REMARK  198  A    between atoms: _475  and  _476
REMARK  199  A    between atoms: _475  and  _478
REMARK  200  A    between atoms: _478  and  _479
REMARK  201  A    between atoms: _479  and  _480
REMARK  202  A    between atoms: _485  and  _487
REMARK  203  A    between atoms: _487  and  _488
REMARK  204  A    between atoms: _487  and  _490
REMARK  205  A    between atoms: _490  and  _491
REMARK  206  A    between atoms: _496  and  _497
REMARK  207  A    between atoms: _499  and  _501
REMARK  208  A    between atoms: _501  and  _502
REMARK  209  A    between atoms: _505  and  _507
REMARK  210  A    between atoms: _507  and  _508
REMARK  211  A    between atoms: _507  and  _510
REMARK  212  A    between atoms: _510  and  _511
REMARK  213  A    between atoms: _516  and  _517
REMARK  214  A    between atoms: _519  and  _521
REMARK  215  A    between atoms: _521  and  _522
REMARK  216  A    between atoms: _521  and  _524
REMARK  217  A    between atoms: _524  and  _525
REMARK  218  A    between atoms: _530  and  _531
REMARK  219  A    between atoms: _533  and  _535
REMARK  220  A    between atoms: _535  and  _536
REMARK  221  A    between atoms: _535  and  _538
REMARK  222  A    between atoms: _538  and  _539
REMARK  223  A    between atoms: _542  and  _544
REMARK  224  A    between atoms: _544  and  _545
REMARK  225  A    between atoms: _544  and  _547
REMARK  226  A    between atoms: _547  and  _548
REMARK  227  A    between atoms: _558  and  _560
REMARK  228  A    between atoms: _560  and  _561
REMARK  229  A    between atoms: _564  and  _566
REMARK  230  A    between atoms: _566  and  _567
REMARK  231  A    between atoms: _570  and  _572
REMARK  232  A    between atoms: _572  and  _573
REMARK  233  A    between atoms: _572  and  _575
REMARK  234  A    between atoms: _575  and  _576
REMARK  235  A    between atoms: _579  and  _581
REMARK  236  A    between atoms: _581  and  _582
REMARK  237  A    between atoms: _581  and  _584
REMARK  238  A    between atoms: _584  and  _585
REMARK  239  A    between atoms: _588  and  _590
REMARK  240  A    between atoms: _590  and  _591
REMARK  241  A    between atoms: _590  and  _593
REMARK  242  A    between atoms: _593  and  _594
REMARK  243  A    between atoms: _597  and  _599
REMARK  244  A    between atoms: _599  and  _600
REMARK  245  A    between atoms: _599  and  _602
REMARK  246  A    between atoms: _602  and  _603
REMARK  247  A    between atoms: _603  and  _604
REMARK  248  A    between atoms: _604  and  _605
REMARK  249  A    between atoms: _605  and  _606
REMARK  250  A    between atoms: _610  and  _612
REMARK  251  A    between atoms: _612  and  _613
REMARK  252  A    between atoms: _612  and  _615
REMARK  253  A    between atoms: _615  and  _616
REMARK  254  A    between atoms: _621  and  _623
REMARK  255  A    between atoms: _623  and  _624
REMARK  256  A    between atoms: _623  and  _626
REMARK  257  A    between atoms: _626  and  _627
REMARK  258  A    between atoms: _627  and  _628
REMARK  259  A    between atoms: _628  and  _629
REMARK  260  A    between atoms: _629  and  _630
REMARK  261  A    between atoms: _634  and  _636
REMARK  262  A    between atoms: _636  and  _637
REMARK  263  A    between atoms: _636  and  _639
REMARK  264  A    between atoms: _639  and  _640
REMARK  265  A    between atoms: _650  and  _652
REMARK  266  A    between atoms: _652  and  _653
REMARK  267  A    between atoms: _656  and  _658
REMARK  268  A    between atoms: _658  and  _659
REMARK  269  A    between atoms: _661  and  _663
REMARK  270  A    between atoms: _663  and  _664
REMARK  271  A    between atoms: _667  and  _669
REMARK  272  A    between atoms: _669  and  _670
REMARK  273  A    between atoms: _673  and  _675
REMARK  274  A    between atoms: _675  and  _676
REMARK  275  A    between atoms: _675  and  _678
REMARK  276  A    between atoms: _678  and  _679
REMARK  277  A    between atoms: _684  and  _685
REMARK  278  A    between atoms: _687  and  _689
REMARK  279  A    between atoms: _689  and  _690
REMARK  280  A    between atoms: _689  and  _692
REMARK  281  A    between atoms: _692  and  _693
REMARK  282  A    between atoms: _698  and  _699
REMARK  283  A    between atoms: _701  and  _703
REMARK  284  A    between atoms: _703  and  _704
REMARK  285  A    between atoms: _703  and  _706
REMARK  286  A    between atoms: _706  and  _707
REMARK  287  A    between atoms: _712  and  _713
REMARK  288  A    between atoms: _715  and  _717
REMARK  289  A    between atoms: _717  and  _718
REMARK  290  A    between atoms: _717  and  _720
REMARK  291  A    between atoms: _720  and  _721
REMARK  292  A    between atoms: _724  and  _726
REMARK  293  A    between atoms: _726  and  _727
REMARK  294  A    between atoms: _729  and  _731
REMARK  295  A    between atoms: _731  and  _732
REMARK  296  A    between atoms: _731  and  _734
REMARK  297  A    between atoms: _734  and  _735
REMARK  298  A    between atoms: _738  and  _740
REMARK  299  A    between atoms: _740  and  _741
REMARK  300  A    between atoms: _740  and  _743
REMARK  301  A    between atoms: _743  and  _744
REMARK  302  A    between atoms: _745  and  _747
REMARK  303  A    between atoms: _747  and  _748
REMARK  304  A    between atoms: _747  and  _750
REMARK  305  A    between atoms: _753  and  _755
REMARK  306  A    between atoms: _755  and  _756
REMARK  307  A    between atoms: _755  and  _758
REMARK  308  A    between atoms: _758  and  _759
REMARK  309  A    between atoms: _759  and  _760
REMARK  310  A    between atoms: _763  and  _765
REMARK  311  A    between atoms: _765  and  _766
REMARK  312  A    between atoms: _765  and  _768
REMARK  313  A    between atoms: _768  and  _769
REMARK  314  A    between atoms: _779  and  _781
REMARK  315  A    between atoms: _781  and  _782
REMARK  316  A    between atoms: _781  and  _784
REMARK  317  A    between atoms: _784  and  _785
REMARK  318  A    between atoms: _788  and  _790
REMARK  319  A    between atoms: _790  and  _791
REMARK  320  A    between atoms: _790  and  _793
REMARK  321  A    between atoms: _793  and  _794
REMARK  322  A    between atoms: _799  and  _800
REMARK                            x       y       z     vdW  Elec       q    Type
REMARK                         _______ _______ _______ _____ _____    ______ ____
ROOT
ATOM      1  O   HOH     1      46.320  58.528  -9.223  0.00  0.00    +0.000 OA
ENDROOT
TORSDOF 0
REMARK  Name = ../refined-set-2016/1fzk/1fzk_pocket.pdb
REMARK  322 active torsions:
REMARK  status: ('A' for Active; 'I' for Inactive)
REMARK    1  A    between atoms: _1  and  _3
REMARK    2  A    between atoms: _3  and  _4
REMARK    3  A    between atoms: _3  and  _6
REMARK    4  A    between atoms: _6  and  _7
REMARK    5  A    between atoms: _10  and  _12
REMARK    6  A    between atoms: _12  and  _13
REMARK    7  A    between atoms: _12  and  _15
REMARK    8  A    between atoms: _15  and  _16
REMARK    9  A    between atoms: _16  and  _17
REMARK   10  A    between atoms: _17  and  _18
REMARK   11  A    between atoms: _27  and  _29
REMARK   12  A    between atoms: _29  and  _30
REMARK   13  A    between atoms: _29  and  _32
REMARK   14  A    between atoms: _32  and  _33
REMARK   15  A    between atoms: _38  and  _39
REMARK   16  A    between atoms: _41  and  _43
REMARK   17  A    between atoms: _43  and  _44
REMARK   18  A    between atoms: _43  and  _46
REMARK   19  A    between atoms: _46  and  _47
REMARK   20  A    between atoms: _53  and  _55
REMARK   21  A    between atoms: _55  and  _56
REMARK   22  A    between atoms: _55  and  _58
REMARK   23  A    between atoms: _61  and  _63
REMARK   24  A    between atoms: _63  and  _64
REMARK   25  A    between atoms: _63  and  _66
REMARK   26  A    between atoms: _66  and  _67
REMARK   27  A    between atoms: _70  and  _72
REMARK   28  A    between atoms: _72  and  _73
REMARK   29  A    between atoms: _72  and  _75
REMARK   30  A    between atoms: _75  and  _76
REMARK   31  A    between atoms: _81  and  _82
REMARK   32  A    between atoms: _84  and  _86
REMARK   33  A    between atoms: _86  and  _87
REMARK   34  A    between atoms: _86  and  _89
REMARK   35  A    between atoms: _89  and  _90
REMARK   36  A    between atoms: _90  and  _91
REMARK   37  A    between atoms: _93  and  _95
REMARK   38  A    between atoms: _95  and  _96
REMARK   39  A    between atoms: _95  and  _98
REMARK   40  A    between atoms: _98  and  _99
REMARK   41  A    between atoms: _99  and  _100
REMARK   42  A    between atoms: _103  and  _105
REMARK   43  A    between atoms: _105  and  _106
REMARK   44  A    between atoms: _105  and  _108
REMARK   45  A    between atoms: _111  and  _113
REMARK   46  A    between atoms: _113  and  _114
REMARK   47  A    between atoms: _116  and  _118
REMARK   48  A    between atoms: _118  and  _119
REMARK   49  A    between atoms: _118  and  _121
REMARK   50  A    between atoms: _124  and  _126
REMARK   51  A    between atoms: _126  and  _127
REMARK   52  A    between atoms: _126  and  _129
REMARK   53  A    between atoms: _129  and  _130
REMARK   54  A    between atoms: _136  and  _138
REMARK   55  A    between atoms: _138  and  _139
REMARK   56  A    between atoms: _138  and  _141
REMARK   57  A    between atoms: _144  and  _146
REMARK   58  A    between atoms: _146  and  _147
REMARK   59  A    between atoms: _146  and  _149
REMARK   60  A    between atoms: _149  and  _150
REMARK   61  A    between atoms: _155  and  _156
REMARK   62  A    between atoms: _158  and  _160
REMARK   63  A    between atoms: _160  and  _161
REMARK   64  A    between atoms: _160  and  _163
REMARK   65  A    between atoms: _163  and  _164
REMARK   66  A    between atoms: _164  and  _165
REMARK   67  A    between atoms: _167  and  _169
REMARK   68  A    between atoms: _169  and  _170
REMARK   69  A    between atoms: _169  and  _172
REMARK   70  A    between atoms: _172  and  _173
REMARK   71  A    between atoms: _173  and  _174
REMARK   72  A    between atoms: _177  and  _179
REMARK   73  A    between atoms: _179  and  _180
REMARK   74  A    between atoms: _179  and  _182
REMARK   75  A    between atoms: _182  and  _183
REMARK   76  A    between atoms: _183  and  _184
REMARK   77  A    between atoms: _187  and  _189
REMARK   78  A    between atoms: _189  and  _190
REMARK   79  A    between atoms: _189  and  _192
REMARK   80  A    between atoms: _192  and  _193
REMARK   81  A    between atoms: _198  and  _199
REMARK   82  A    between atoms: _201  and  _203
REMARK   83  A    between atoms: _203  and  _204
REMARK   84  A    between atoms: _203  and  _206
REMARK   85  A    between atoms: _206  and  _207
REMARK   86  A    between atoms: _207  and  _208
REMARK   87  A    between atoms: _208  and  _209
REMARK   88  A    between atoms: _218  and  _220
REMARK   89  A    between atoms: _220  and  _221
REMARK   90  A    between atoms: _220  and  _223
REMARK   91  A    between atoms: _223  and  _224
REMARK   92  A    between atoms: _224  and  _225
REMARK   93  A    between atoms: _228  and  _230
REMARK   94  A    between atoms: _230  and  _231
REMARK   95  A    between atoms: _230  and  _233
REMARK   96  A    between atoms: _233  and  _234
REMARK   97  A    between atoms: _234  and  _235
REMARK   98  A    between atoms: _240  and  _242
REMARK   99  A    between atoms: _242  and  _243
REMARK  100  A    between atoms: _242  and  _245
REMARK  101  A    between atoms: _245  and  _246
REMARK  102  A    between atoms: _246  and  _247
REMARK  103  A    between atoms: _247  and  _248
REMARK  104  A    between atoms: _248  and  _249
REMARK  105  A    between atoms: _253  and  _255
REMARK  106  A    between atoms: _255  and  _256
REMARK  107  A    between atoms: _259  and  _261
REMARK  108  A    between atoms: _261  and  _262
REMARK  109  A    between atoms: _264  and  _266
REMARK  110  A    between atoms: _266  and  _267
REMARK  111  A    between atoms: _266  and  _269
REMARK  112  A    between atoms: _269  and  _270
REMARK  113  A    between atoms: _275  and  _277
REMARK  114  A    between atoms: _277  and  _278
REMARK  115  A    between atoms: _277  and  _280
REMARK  116  A    between atoms: _280  and  _281
REMARK  117  A    between atoms: _281  and  _282
REMARK  118  A    between atoms: _285  and  _287
REMARK  119  A    between atoms: _287  and  _288
REMARK  120  A    between atoms: _287  and  _290
REMARK  121  A    between atoms: _290  and  _291
REMARK  122  A    between atoms: _291  and  _292
REMARK  123  A    between atoms: _297  and  _299
REMARK  124  A    between atoms: _299  and  _300
REMARK  125  A    between atoms: _299  and  _302
REMARK  126  A    between atoms: _302  and  _303
REMARK  127  A    between atoms: _305  and  _307
REMARK  128  A    between atoms: _307  and  _308
REMARK  129  A    between atoms: _307  and  _310
REMARK  130  A    between atoms: _310  and  _311
REMARK  131  A    between atoms: _317  and  _319
REMARK  132  A    between atoms: _319  and  _320
REMARK  133  A    between atoms: _319  and  _322
REMARK  134  A    between atoms: _325  and  _327
REMARK  135  A    between atoms: _327  and  _328
REMARK  136  A    between atoms: _327  and  _330
REMARK  137  A    between atoms: _330  and  _331
REMARK  138  A    between atoms: _334  and  _336
REMARK  139  A    between atoms: _336  and  _337
REMARK  140  A    between atoms: _336  and  _339
REMARK  141  A    between atoms: _339  and  _340
REMARK  142  A    between atoms: _343  and  _345
REMARK  143  A    between atoms: _345  and  _346
REMARK  144  A    between atoms: _345  and  _348
REMARK  145  A    between atoms: _348  and  _349
REMARK  146  A    between atoms: _352  and  _354
REMARK  147  A    between atoms: _354  and  _355
REMARK  148  A    between atoms: _354  and  _357
REMARK  149  A    between atoms: _357  and  _358
REMARK  150  A    between atoms: _361  and  _363
REMARK  151  A    between atoms: _363  and  _364
REMARK  152  A    between atoms: _363  and  _366
REMARK  153  A    between atoms: _366  and  _367
REMARK  154  A    between atoms: _372  and  _373
REMARK  155  A    between atoms: _375  and  _377
REMARK  156  A    between atoms: _377  and  _378
REMARK  157  A    between atoms: _377  and  _380
REMARK  158  A    between atoms: _380  and  _381
REMARK  159  A    between atoms: _386  and  _387
REMARK  160  A    between atoms: _389  and  _391
REMARK  161  A    between atoms: _391  and  _392
REMARK  162  A    between atoms: _391  and  _394
REMARK  163  A    between atoms: _394  and  _395
REMARK  164  A    between atoms: _398  and  _400
REMARK  165  A    between atoms: _400  and  _401
REMARK  166  A    between atoms: _400  and  _403
REMARK  167  A    between atoms: _403  and  _404
REMARK  168  A    between atoms: _404  and  _405
REMARK  169  A    between atoms: _410  and  _412
REMARK  170  A    between atoms: _412  and  _413
REMARK  171  A    between atoms: _412  and  _415
REMARK  172  A    between atoms: _418  and  _420
REMARK  173  A    between atoms: _420  and  _421
REMARK  174  A    between atoms: _420  and  _423
REMARK  175  A    between atoms: _423  and  _424
REMARK  176  A    between atoms: _427  and  _429
REMARK  177  A    between atoms: _429  and  _430
REMARK  178  A    between atoms: _429  and  _432
REMARK  179  A    between atoms: _432  and  _433
REMARK  180  A    between atoms: _435  and  _437
REMARK  181  A    between atoms: _437  and  _438
REMARK  182  A    between atoms: _440  and  _442
REMARK  183  A    between atoms: _442  and  _443
REMARK  184  A    between atoms: _442  and  _445
REMARK  185  A    between atoms: _445  and  _446
REMARK  186  A    between atoms: _446  and  _744
REMARK  187  A    between atoms: _447  and  _449
REMARK  188  A    between atoms: _449  and  _450
REMARK  189  A    between atoms: _449  and  _452
REMARK  190  A    between atoms: _452  and  _453
REMARK  191  A    between atoms: _458  and  _459
REMARK  192  A    between atoms: _461  and  _463
REMARK  193  A    between atoms: _463  and  _464
REMARK  194  A    between atoms: _463  and  _466
REMARK  195  A    between atoms: _466  and  _467
REMARK  196  A    between atoms: _467  and  _468
REMARK  197  A    between atoms: _473  and  _475
REMARK  198  A    between atoms: _475  and  _476
REMARK  199  A    between atoms: _475  and  _478
REMARK  200  A    between atoms: _478  and  _479
REMARK  201  A    between atoms: _479  and  _480
REMARK  202  A    between atoms: _485  and  _487
REMARK  203  A    between atoms: _487  and  _488
REMARK  204  A    between atoms: _487  and  _490
REMARK  205  A    between atoms: _490  and  _491
REMARK  206  A    between atoms: _496  and  _497
REMARK  207  A    between atoms: _499  and  _501
REMARK  208  A    between atoms: _501  and  _502
REMARK  209  A    between atoms: _505  and  _507
REMARK  210  A    between atoms: _507  and  _508
REMARK  211  A    between atoms: _507  and  _510
REMARK  212  A    between atoms: _510  and  _511
REMARK  213  A    between atoms: _516  and  _517
REMARK  214  A    between atoms: _519  and  _521
REMARK  215  A    between atoms: _521  and  _522
REMARK  216  A    between atoms: _521  and  _524
REMARK  217  A    between atoms: _524  and  _525
REMARK  218  A    between atoms: _530  and  _531
REMARK  219  A    between atoms: _533  and  _535
REMARK  220  A    between atoms: _535  and  _536
REMARK  221  A    between atoms: _535  and  _538
REMARK  222  A    between atoms: _538  and  _539
REMARK  223  A    between atoms: _542  and  _544
REMARK  224  A    between atoms: _544  and  _545
REMARK  225  A    between atoms: _544  and  _547
REMARK  226  A    between atoms: _547  and  _548
REMARK  227  A    between atoms: _558  and  _560
REMARK  228  A    between atoms: _560  and  _561
REMARK  229  A    between atoms: _564  and  _566
REMARK  230  A    between atoms: _566  and  _567
REMARK  231  A    between atoms: _570  and  _572
REMARK  232  A    between atoms: _572  and  _573
REMARK  233  A    between atoms: _572  and  _575
REMARK  234  A    between atoms: _575  and  _576
REMARK  235  A    between atoms: _579  and  _581
REMARK  236  A    between atoms: _581  and  _582
REMARK  237  A    between atoms: _581  and  _584
REMARK  238  A    between atoms: _584  and  _585
REMARK  239  A    between atoms: _588  and  _590
REMARK  240  A    between atoms: _590  and  _591
REMARK  241  A    between atoms: _590  and  _593
REMARK  242  A    between atoms: _593  and  _594
REMARK  243  A    between atoms: _597  and  _599
REMARK  244  A    between atoms: _599  and  _600
REMARK  245  A    between atoms: _599  and  _602
REMARK  246  A    between atoms: _602  and  _603
REMARK  247  A    between atoms: _603  and  _604
REMARK  248  A    between atoms: _604  and  _605
REMARK  249  A    between atoms: _605  and  _606
REMARK  250  A    between atoms: _610  and  _612
REMARK  251  A    between atoms: _612  and  _613
REMARK  252  A    between atoms: _612  and  _615
REMARK  253  A    between atoms: _615  and  _616
REMARK  254  A    between atoms: _621  and  _623
REMARK  255  A    between atoms: _623  and  _624
REMARK  256  A    between atoms: _623  and  _626
REMARK  257  A    between atoms: _626  and  _627
REMARK  258  A    between atoms: _627  and  _628
REMARK  259  A    between atoms: _628  and  _629
REMARK  260  A    between atoms: _629  and  _630
REMARK  261  A    between atoms: _634  and  _636
REMARK  262  A    between atoms: _636  and  _637
REMARK  263  A    between atoms: _636  and  _639
REMARK  264  A    between atoms: _639  and  _640
REMARK  265  A    between atoms: _650  and  _652
REMARK  266  A    between atoms: _652  and  _653
REMARK  267  A    between atoms: _656  and  _658
REMARK  268  A    between atoms: _658  and  _659
REMARK  269  A    between atoms: _661  and  _663
REMARK  270  A    between atoms: _663  and  _664
REMARK  271  A    between atoms: _667  and  _669
REMARK  272  A    between atoms: _669  and  _670
REMARK  273  A    between atoms: _673  and  _675
REMARK  274  A    between atoms: _675  and  _676
REMARK  275  A    between atoms: _675  and  _678
REMARK  276  A    between atoms: _678  and  _679
REMARK  277  A    between atoms: _684  and  _685
REMARK  278  A    between atoms: _687  and  _689
REMARK  279  A    between atoms: _689  and  _690
REMARK  280  A    between atoms: _689  and  _692
REMARK  281  A    between atoms: _692  and  _693
REMARK  282  A    between atoms: _698  and  _699
REMARK  283  A    between atoms: _701  and  _703
REMARK  284  A    between atoms: _703  and  _704
REMARK  285  A    between atoms: _703  and  _706
REMARK  286  A    between atoms: _706  and  _707
REMARK  287  A    between atoms: _712  and  _713
REMARK  288  A    between atoms: _715  and  _717
REMARK  289  A    between atoms: _717  and  _718
REMARK  290  A    between atoms: _717  and  _720
REMARK  291  A    between atoms: _720  and  _721
REMARK  292  A    between atoms: _724  and  _726
REMARK  293  A    between atoms: _726  and  _727
REMARK  294  A    between atoms: _729  and  _731
REMARK  295  A    between atoms: _731  and  _732
REMARK  296  A    between atoms: _731  and  _734
REMARK  297  A    between atoms: _734  and  _735
REMARK  298  A    between atoms: _738  and  _740
REMARK  299  A    between atoms: _740  and  _741
REMARK  300  A    between atoms: _740  and  _743
REMARK  301  A    between atoms: _743  and  _744
REMARK  302  A    between atoms: _745  and  _747
REMARK  303  A    between atoms: _747  and  _748
REMARK  304  A    between atoms: _747  and  _750
REMARK  305  A    between atoms: _753  and  _755
REMARK  306  A    between atoms: _755  and  _756
REMARK  307  A    between atoms: _755  and  _758
REMARK  308  A    between atoms: _758  and  _759
REMARK  309  A    between atoms: _759  and  _760
REMARK  310  A    between atoms: _763  and  _765
REMARK  311  A    between atoms: _765  and  _766
REMARK  312  A    between atoms: _765  and  _768
REMARK  313  A    between atoms: _768  and  _769
REMARK  314  A    between atoms: _779  and  _781
REMARK  315  A    between atoms: _781  and  _782
REMARK  316  A    between atoms: _781  and  _784
REMARK  317  A    between atoms: _784  and  _785
REMARK  318  A    between atoms: _788  and  _790
REMARK  319  A    between atoms: _790  and  _791
REMARK  320  A    between atoms: _790  and  _793
REMARK  321  A    between atoms: _793  and  _794
REMARK  322  A    between atoms: _799  and  _800
REMARK                            x       y       z     vdW  Elec       q    Type
REMARK                         _______ _______ _______ _____ _____    ______ ____
ROOT
ATOM      1  O   HOH     1      39.101  60.372 -23.738  0.00  0.00    +0.000 OA
ENDROOT
TORSDOF 0
REMARK  Name = ../refined-set-2016/1fzk/1fzk_pocket.pdb
REMARK  322 active torsions:
REMARK  status: ('A' for Active; 'I' for Inactive)
REMARK    1  A    between atoms: _1  and  _3
REMARK    2  A    between atoms: _3  and  _4
REMARK    3  A    between atoms: _3  and  _6
REMARK    4  A    between atoms: _6  and  _7
REMARK    5  A    between atoms: _10  and  _12
REMARK    6  A    between atoms: _12  and  _13
REMARK    7  A    between atoms: _12  and  _15
REMARK    8  A    between atoms: _15  and  _16
REMARK    9  A    between atoms: _16  and  _17
REMARK   10  A    between atoms: _17  and  _18
REMARK   11  A    between atoms: _27  and  _29
REMARK   12  A    between atoms: _29  and  _30
REMARK   13  A    between atoms: _29  and  _32
REMARK   14  A    between atoms: _32  and  _33
REMARK   15  A    between atoms: _38  and  _39
REMARK   16  A    between atoms: _41  and  _43
REMARK   17  A    between atoms: _43  and  _44
REMARK   18  A    between atoms: _43  and  _46
REMARK   19  A    between atoms: _46  and  _47
REMARK   20  A    between atoms: _53  and  _55
REMARK   21  A    between atoms: _55  and  _56
REMARK   22  A    between atoms: _55  and  _58
REMARK   23  A    between atoms: _61  and  _63
REMARK   24  A    between atoms: _63  and  _64
REMARK   25  A    between atoms: _63  and  _66
REMARK   26  A    between atoms: _66  and  _67
REMARK   27  A    between atoms: _70  and  _72
REMARK   28  A    between atoms: _72  and  _73
REMARK   29  A    between atoms: _72  and  _75
REMARK   30  A    between atoms: _75  and  _76
REMARK   31  A    between atoms: _81  and  _82
REMARK   32  A    between atoms: _84  and  _86
REMARK   33  A    between atoms: _86  and  _87
REMARK   34  A    between atoms: _86  and  _89
REMARK   35  A    between atoms: _89  and  _90
REMARK   36  A    between atoms: _90  and  _91
REMARK   37  A    between atoms: _93  and  _95
REMARK   38  A    between atoms: _95  and  _96
REMARK   39  A    between atoms: _95  and  _98
REMARK   40  A    between atoms: _98  and  _99
REMARK   41  A    between atoms: _99  and  _100
REMARK   42  A    between atoms: _103  and  _105
REMARK   43  A    between atoms: _105  and  _106
REMARK   44  A    between atoms: _105  and  _108
REMARK   45  A    between atoms: _111  and  _113
REMARK   46  A    between atoms: _113  and  _114
REMARK   47  A    between atoms: _116  and  _118
REMARK   48  A    between atoms: _118  and  _119
REMARK   49  A    between atoms: _118  and  _121
REMARK   50  A    between atoms: _124  and  _126
REMARK   51  A    between atoms: _126  and  _127
REMARK   52  A    between atoms: _126  and  _129
REMARK   53  A    between atoms: _129  and  _130
REMARK   54  A    between atoms: _136  and  _138
REMARK   55  A    between atoms: _138  and  _139
REMARK   56  A    between atoms: _138  and  _141
REMARK   57  A    between atoms: _144  and  _146
REMARK   58  A    between atoms: _146  and  _147
REMARK   59  A    between atoms: _146  and  _149
REMARK   60  A    between atoms: _149  and  _150
REMARK   61  A    between atoms: _155  and  _156
REMARK   62  A    between atoms: _158  and  _160
REMARK   63  A    between atoms: _160  and  _161
REMARK   64  A    between atoms: _160  and  _163
REMARK   65  A    between atoms: _163  and  _164
REMARK   66  A    between atoms: _164  and  _165
REMARK   67  A    between atoms: _167  and  _169
REMARK   68  A    between atoms: _169  and  _170
REMARK   69  A    between atoms: _169  and  _172
REMARK   70  A    between atoms: _172  and  _173
REMARK   71  A    between atoms: _173  and  _174
REMARK   72  A    between atoms: _177  and  _179
REMARK   73  A    between atoms: _179  and  _180
REMARK   74  A    between atoms: _179  and  _182
REMARK   75  A    between atoms: _182  and  _183
REMARK   76  A    between atoms: _183  and  _184
REMARK   77  A    between atoms: _187  and  _189
REMARK   78  A    between atoms: _189  and  _190
REMARK   79  A    between atoms: _189  and  _192
REMARK   80  A    between atoms: _192  and  _193
REMARK   81  A    between atoms: _198  and  _199
REMARK   82  A    between atoms: _201  and  _203
REMARK   83  A    between atoms: _203  and  _204
REMARK   84  A    between atoms: _203  and  _206
REMARK   85  A    between atoms: _206  and  _207
REMARK   86  A    between atoms: _207  and  _208
REMARK   87  A    between atoms: _208  and  _209
REMARK   88  A    between atoms: _218  and  _220
REMARK   89  A    between atoms: _220  and  _221
REMARK   90  A    between atoms: _220  and  _223
REMARK   91  A    between atoms: _223  and  _224
REMARK   92  A    between atoms: _224  and  _225
REMARK   93  A    between atoms: _228  and  _230
REMARK   94  A    between atoms: _230  and  _231
REMARK   95  A    between atoms: _230  and  _233
REMARK   96  A    between atoms: _233  and  _234
REMARK   97  A    between atoms: _234  and  _235
REMARK   98  A    between atoms: _240  and  _242
REMARK   99  A    between atoms: _242  and  _243
REMARK  100  A    between atoms: _242  and  _245
REMARK  101  A    between atoms: _245  and  _246
REMARK  102  A    between atoms: _246  and  _247
REMARK  103  A    between atoms: _247  and  _248
REMARK  104  A    between atoms: _248  and  _249
REMARK  105  A    between atoms: _253  and  _255
REMARK  106  A    between atoms: _255  and  _256
REMARK  107  A    between atoms: _259  and  _261
REMARK  108  A    between atoms: _261  and  _262
REMARK  109  A    between atoms: _264  and  _266
REMARK  110  A    between atoms: _266  and  _267
REMARK  111  A    between atoms: _266  and  _269
REMARK  112  A    between atoms: _269  and  _270
REMARK  113  A    between atoms: _275  and  _277
REMARK  114  A    between atoms: _277  and  _278
REMARK  115  A    between atoms: _277  and  _280
REMARK  116  A    between atoms: _280  and  _281
REMARK  117  A    between atoms: _281  and  _282
REMARK  118  A    between atoms: _285  and  _287
REMARK  119  A    between atoms: _287  and  _288
REMARK  120  A    between atoms: _287  and  _290
REMARK  121  A    between atoms: _290  and  _291
REMARK  122  A    between atoms: _291  and  _292
REMARK  123  A    between atoms: _297  and  _299
REMARK  124  A    between atoms: _299  and  _300
REMARK  125  A    between atoms: _299  and  _302
REMARK  126  A    between atoms: _302  and  _303
REMARK  127  A    between atoms: _305  and  _307
REMARK  128  A    between atoms: _307  and  _308
REMARK  129  A    between atoms: _307  and  _310
REMARK  130  A    between atoms: _310  and  _311
REMARK  131  A    between atoms: _317  and  _319
REMARK  132  A    between atoms: _319  and  _320
REMARK  133  A    between atoms: _319  and  _322
REMARK  134  A    between atoms: _325  and  _327
REMARK  135  A    between atoms: _327  and  _328
REMARK  136  A    between atoms: _327  and  _330
REMARK  137  A    between atoms: _330  and  _331
REMARK  138  A    between atoms: _334  and  _336
REMARK  139  A    between atoms: _336  and  _337
REMARK  140  A    between atoms: _336  and  _339
REMARK  141  A    between atoms: _339  and  _340
REMARK  142  A    between atoms: _343  and  _345
REMARK  143  A    between atoms: _345  and  _346
REMARK  144  A    between atoms: _345  and  _348
REMARK  145  A    between atoms: _348  and  _349
REMARK  146  A    between atoms: _352  and  _354
REMARK  147  A    between atoms: _354  and  _355
REMARK  148  A    between atoms: _354  and  _357
REMARK  149  A    between atoms: _357  and  _358
REMARK  150  A    between atoms: _361  and  _363
REMARK  151  A    between atoms: _363  and  _364
REMARK  152  A    between atoms: _363  and  _366
REMARK  153  A    between atoms: _366  and  _367
REMARK  154  A    between atoms: _372  and  _373
REMARK  155  A    between atoms: _375  and  _377
REMARK  156  A    between atoms: _377  and  _378
REMARK  157  A    between atoms: _377  and  _380
REMARK  158  A    between atoms: _380  and  _381
REMARK  159  A    between atoms: _386  and  _387
REMARK  160  A    between atoms: _389  and  _391
REMARK  161  A    between atoms: _391  and  _392
REMARK  162  A    between atoms: _391  and  _394
REMARK  163  A    between atoms: _394  and  _395
REMARK  164  A    between atoms: _398  and  _400
REMARK  165  A    between atoms: _400  and  _401
REMARK  166  A    between atoms: _400  and  _403
REMARK  167  A    between atoms: _403  and  _404
REMARK  168  A    between atoms: _404  and  _405
REMARK  169  A    between atoms: _410  and  _412
REMARK  170  A    between atoms: _412  and  _413
REMARK  171  A    between atoms: _412  and  _415
REMARK  172  A    between atoms: _418  and  _420
REMARK  173  A    between atoms: _420  and  _421
REMARK  174  A    between atoms: _420  and  _423
REMARK  175  A    between atoms: _423  and  _424
REMARK  176  A    between atoms: _427  and  _429
REMARK  177  A    between atoms: _429  and  _430
REMARK  178  A    between atoms: _429  and  _432
REMARK  179  A    between atoms: _432  and  _433
REMARK  180  A    between atoms: _435  and  _437
REMARK  181  A    between atoms: _437  and  _438
REMARK  182  A    between atoms: _440  and  _442
REMARK  183  A    between atoms: _442  and  _443
REMARK  184  A    between atoms: _442  and  _445
REMARK  185  A    between atoms: _445  and  _446
REMARK  186  A    between atoms: _446  and  _744
REMARK  187  A    between atoms: _447  and  _449
REMARK  188  A    between atoms: _449  and  _450
REMARK  189  A    between atoms: _449  and  _452
REMARK  190  A    between atoms: _452  and  _453
REMARK  191  A    between atoms: _458  and  _459
REMARK  192  A    between atoms: _461  and  _463
REMARK  193  A    between atoms: _463  and  _464
REMARK  194  A    between atoms: _463  and  _466
REMARK  195  A    between atoms: _466  and  _467
REMARK  196  A    between atoms: _467  and  _468
REMARK  197  A    between atoms: _473  and  _475
REMARK  198  A    between atoms: _475  and  _476
REMARK  199  A    between atoms: _475  and  _478
REMARK  200  A    between atoms: _478  and  _479
REMARK  201  A    between atoms: _479  and  _480
REMARK  202  A    between atoms: _485  and  _487
REMARK  203  A    between atoms: _487  and  _488
REMARK  204  A    between atoms: _487  and  _490
REMARK  205  A    between atoms: _490  and  _491
REMARK  206  A    between atoms: _496  and  _497
REMARK  207  A    between atoms: _499  and  _501
REMARK  208  A    between atoms: _501  and  _502
REMARK  209  A    between atoms: _505  and  _507
REMARK  210  A    between atoms: _507  and  _508
REMARK  211  A    between atoms: _507  and  _510
REMARK  212  A    between atoms: _510  and  _511
REMARK  213  A    between atoms: _516  and  _517
REMARK  214  A    between atoms: _519  and  _521
REMARK  215  A    between atoms: _521  and  _522
REMARK  216  A    between atoms: _521  and  _524
REMARK  217  A    between atoms: _524  and  _525
REMARK  218  A    between atoms: _530  and  _531
REMARK  219  A    between atoms: _533  and  _535
REMARK  220  A    between atoms: _535  and  _536
REMARK  221  A    between atoms: _535  and  _538
REMARK  222  A    between atoms: _538  and  _539
REMARK  223  A    between atoms: _542  and  _544
REMARK  224  A    between atoms: _544  and  _545
REMARK  225  A    between atoms: _544  and  _547
REMARK  226  A    between atoms: _547  and  _548
REMARK  227  A    between atoms: _558  and  _560
REMARK  228  A    between atoms: _560  and  _561
REMARK  229  A    between atoms: _564  and  _566
REMARK  230  A    between atoms: _566  and  _567
REMARK  231  A    between atoms: _570  and  _572
REMARK  232  A    between atoms: _572  and  _573
REMARK  233  A    between atoms: _572  and  _575
REMARK  234  A    between atoms: _575  and  _576
REMARK  235  A    between atoms: _579  and  _581
REMARK  236  A    between atoms: _581  and  _582
REMARK  237  A    between atoms: _581  and  _584
REMARK  238  A    between atoms: _584  and  _585
REMARK  239  A    between atoms: _588  and  _590
REMARK  240  A    between atoms: _590  and  _591
REMARK  241  A    between atoms: _590  and  _593
REMARK  242  A    between atoms: _593  and  _594
REMARK  243  A    between atoms: _597  and  _599
REMARK  244  A    between atoms: _599  and  _600
REMARK  245  A    between atoms: _599  and  _602
REMARK  246  A    between atoms: _602  and  _603
REMARK  247  A    between atoms: _603  and  _604
REMARK  248  A    between atoms: _604  and  _605
REMARK  249  A    between atoms: _605  and  _606
REMARK  250  A    between atoms: _610  and  _612
REMARK  251  A    between atoms: _612  and  _613
REMARK  252  A    between atoms: _612  and  _615
REMARK  253  A    between atoms: _615  and  _616
REMARK  254  A    between atoms: _621  and  _623
REMARK  255  A    between atoms: _623  and  _624
REMARK  256  A    between atoms: _623  and  _626
REMARK  257  A    between atoms: _626  and  _627
REMARK  258  A    between atoms: _627  and  _628
REMARK  259  A    between atoms: _628  and  _629
REMARK  260  A    between atoms: _629  and  _630
REMARK  261  A    between atoms: _634  and  _636
REMARK  262  A    between atoms: _636  and  _637
REMARK  263  A    between atoms: _636  and  _639
REMARK  264  A    between atoms: _639  and  _640
REMARK  265  A    between atoms: _650  and  _652
REMARK  266  A    between atoms: _652  and  _653
REMARK  267  A    between atoms: _656  and  _658
REMARK  268  A    between atoms: _658  and  _659
REMARK  269  A    between atoms: _661  and  _663
REMARK  270  A    between atoms: _663  and  _664
REMARK  271  A    between atoms: _667  and  _669
REMARK  272  A    between atoms: _669  and  _670
REMARK  273  A    between atoms: _673  and  _675
REMARK  274  A    between atoms: _675  and  _676
REMARK  275  A    between atoms: _675  and  _678
REMARK  276  A    between atoms: _678  and  _679
REMARK  277  A    between atoms: _684  and  _685
REMARK  278  A    between atoms: _687  and  _689
REMARK  279  A    between atoms: _689  and  _690
REMARK  280  A    between atoms: _689  and  _692
REMARK  281  A    between atoms: _692  and  _693
REMARK  282  A    between atoms: _698  and  _699
REMARK  283  A    between atoms: _701  and  _703
REMARK  284  A    between atoms: _703  and  _704
REMARK  285  A    between atoms: _703  and  _706
REMARK  286  A    between atoms: _706  and  _707
REMARK  287  A    between atoms: _712  and  _713
REMARK  288  A    between atoms: _715  and  _717
REMARK  289  A    between atoms: _717  and  _718
REMARK  290  A    between atoms: _717  and  _720
REMARK  291  A    between atoms: _720  and  _721
REMARK  292  A    between atoms: _724  and  _726
REMARK  293  A    between atoms: _726  and  _727
REMARK  294  A    between atoms: _729  and  _731
REMARK  295  A    between atoms: _731  and  _732
REMARK  296  A    between atoms: _731  and  _734
REMARK  297  A    between atoms: _734  and  _735
REMARK  298  A    between atoms: _738  and  _740
REMARK  299  A    between atoms: _740  and  _741
REMARK  300  A    between atoms: _740  and  _743
REMARK  301  A    between atoms: _743  and  _744
REMARK  302  A    between atoms: _745  and  _747
REMARK  303  A    between atoms: _747  and  _748
REMARK  304  A    between atoms: _747  and  _750
REMARK  305  A    between atoms: _753  and  _755
REMARK  306  A    between atoms: _755  and  _756
REMARK  307  A    between atoms: _755  and  _758
REMARK  308  A    between atoms: _758  and  _759
REMARK  309  A    between atoms: _759  and  _760
REMARK  310  A    between atoms: _763  and  _765
REMARK  311  A    between atoms: _765  and  _766
REMARK  312  A    between atoms: _765  and  _768
REMARK  313  A    between atoms: _768  and  _769
REMARK  314  A    between atoms: _779  and  _781
REMARK  315  A    between atoms: _781  and  _782
REMARK  316  A    between atoms: _781  and  _784
REMARK  317  A    between atoms: _784  and  _785
REMARK  318  A    between atoms: _788  and  _790
REMARK  319  A    between atoms: _790  and  _791
REMARK  320  A    between atoms: _790  and  _793
REMARK  321  A    between atoms: _793  and  _794
REMARK  322  A    between atoms: _799  and  _800
REMARK                            x       y       z     vdW  Elec       q    Type
REMARK                         _______ _______ _______ _____ _____    ______ ____
ROOT
ATOM      1  O   HOH     1      29.407  57.916 -14.857  0.00  0.00    +0.000 OA
ENDROOT
TORSDOF 0
REMARK  Name = ../refined-set-2016/1fzk/1fzk_pocket.pdb
REMARK  322 active torsions:
REMARK  status: ('A' for Active; 'I' for Inactive)
REMARK    1  A    between atoms: _1  and  _3
REMARK    2  A    between atoms: _3  and  _4
REMARK    3  A    between atoms: _3  and  _6
REMARK    4  A    between atoms: _6  and  _7
REMARK    5  A    between atoms: _10  and  _12
REMARK    6  A    between atoms: _12  and  _13
REMARK    7  A    between atoms: _12  and  _15
REMARK    8  A    between atoms: _15  and  _16
REMARK    9  A    between atoms: _16  and  _17
REMARK   10  A    between atoms: _17  and  _18
REMARK   11  A    between atoms: _27  and  _29
REMARK   12  A    between atoms: _29  and  _30
REMARK   13  A    between atoms: _29  and  _32
REMARK   14  A    between atoms: _32  and  _33
REMARK   15  A    between atoms: _38  and  _39
REMARK   16  A    between atoms: _41  and  _43
REMARK   17  A    between atoms: _43  and  _44
REMARK   18  A    between atoms: _43  and  _46
REMARK   19  A    between atoms: _46  and  _47
REMARK   20  A    between atoms: _53  and  _55
REMARK   21  A    between atoms: _55  and  _56
REMARK   22  A    between atoms: _55  and  _58
REMARK   23  A    between atoms: _61  and  _63
REMARK   24  A    between atoms: _63  and  _64
REMARK   25  A    between atoms: _63  and  _66
REMARK   26  A    between atoms: _66  and  _67
REMARK   27  A    between atoms: _70  and  _72
REMARK   28  A    between atoms: _72  and  _73
REMARK   29  A    between atoms: _72  and  _75
REMARK   30  A    between atoms: _75  and  _76
REMARK   31  A    between atoms: _81  and  _82
REMARK   32  A    between atoms: _84  and  _86
REMARK   33  A    between atoms: _86  and  _87
REMARK   34  A    between atoms: _86  and  _89
REMARK   35  A    between atoms: _89  and  _90
REMARK   36  A    between atoms: _90  and  _91
REMARK   37  A    between atoms: _93  and  _95
REMARK   38  A    between atoms: _95  and  _96
REMARK   39  A    between atoms: _95  and  _98
REMARK   40  A    between atoms: _98  and  _99
REMARK   41  A    between atoms: _99  and  _100
REMARK   42  A    between atoms: _103  and  _105
REMARK   43  A    between atoms: _105  and  _106
REMARK   44  A    between atoms: _105  and  _108
REMARK   45  A    between atoms: _111  and  _113
REMARK   46  A    between atoms: _113  and  _114
REMARK   47  A    between atoms: _116  and  _118
REMARK   48  A    between atoms: _118  and  _119
REMARK   49  A    between atoms: _118  and  _121
REMARK   50  A    between atoms: _124  and  _126
REMARK   51  A    between atoms: _126  and  _127
REMARK   52  A    between atoms: _126  and  _129
REMARK   53  A    between atoms: _129  and  _130
REMARK   54  A    between atoms: _136  and  _138
REMARK   55  A    between atoms: _138  and  _139
REMARK   56  A    between atoms: _138  and  _141
REMARK   57  A    between atoms: _144  and  _146
REMARK   58  A    between atoms: _146  and  _147
REMARK   59  A    between atoms: _146  and  _149
REMARK   60  A    between atoms: _149  and  _150
REMARK   61  A    between atoms: _155  and  _156
REMARK   62  A    between atoms: _158  and  _160
REMARK   63  A    between atoms: _160  and  _161
REMARK   64  A    between atoms: _160  and  _163
REMARK   65  A    between atoms: _163  and  _164
REMARK   66  A    between atoms: _164  and  _165
REMARK   67  A    between atoms: _167  and  _169
REMARK   68  A    between atoms: _169  and  _170
REMARK   69  A    between atoms: _169  and  _172
REMARK   70  A    between atoms: _172  and  _173
REMARK   71  A    between atoms: _173  and  _174
REMARK   72  A    between atoms: _177  and  _179
REMARK   73  A    between atoms: _179  and  _180
REMARK   74  A    between atoms: _179  and  _182
REMARK   75  A    between atoms: _182  and  _183
REMARK   76  A    between atoms: _183  and  _184
REMARK   77  A    between atoms: _187  and  _189
REMARK   78  A    between atoms: _189  and  _190
REMARK   79  A    between atoms: _189  and  _192
REMARK   80  A    between atoms: _192  and  _193
REMARK   81  A    between atoms: _198  and  _199
REMARK   82  A    between atoms: _201  and  _203
REMARK   83  A    between atoms: _203  and  _204
REMARK   84  A    between atoms: _203  and  _206
REMARK   85  A    between atoms: _206  and  _207
REMARK   86  A    between atoms: _207  and  _208
REMARK   87  A    between atoms: _208  and  _209
REMARK   88  A    between atoms: _218  and  _220
REMARK   89  A    between atoms: _220  and  _221
REMARK   90  A    between atoms: _220  and  _223
REMARK   91  A    between atoms: _223  and  _224
REMARK   92  A    between atoms: _224  and  _225
REMARK   93  A    between atoms: _228  and  _230
REMARK   94  A    between atoms: _230  and  _231
REMARK   95  A    between atoms: _230  and  _233
REMARK   96  A    between atoms: _233  and  _234
REMARK   97  A    between atoms: _234  and  _235
REMARK   98  A    between atoms: _240  and  _242
REMARK   99  A    between atoms: _242  and  _243
REMARK  100  A    between atoms: _242  and  _245
REMARK  101  A    between atoms: _245  and  _246
REMARK  102  A    between atoms: _246  and  _247
REMARK  103  A    between atoms: _247  and  _248
REMARK  104  A    between atoms: _248  and  _249
REMARK  105  A    between atoms: _253  and  _255
REMARK  106  A    between atoms: _255  and  _256
REMARK  107  A    between atoms: _259  and  _261
REMARK  108  A    between atoms: _261  and  _262
REMARK  109  A    between atoms: _264  and  _266
REMARK  110  A    between atoms: _266  and  _267
REMARK  111  A    between atoms: _266  and  _269
REMARK  112  A    between atoms: _269  and  _270
REMARK  113  A    between atoms: _275  and  _277
REMARK  114  A    between atoms: _277  and  _278
REMARK  115  A    between atoms: _277  and  _280
REMARK  116  A    between atoms: _280  and  _281
REMARK  117  A    between atoms: _281  and  _282
REMARK  118  A    between atoms: _285  and  _287
REMARK  119  A    between atoms: _287  and  _288
REMARK  120  A    between atoms: _287  and  _290
REMARK  121  A    between atoms: _290  and  _291
REMARK  122  A    between atoms: _291  and  _292
REMARK  123  A    between atoms: _297  and  _299
REMARK  124  A    between atoms: _299  and  _300
REMARK  125  A    between atoms: _299  and  _302
REMARK  126  A    between atoms: _302  and  _303
REMARK  127  A    between atoms: _305  and  _307
REMARK  128  A    between atoms: _307  and  _308
REMARK  129  A    between atoms: _307  and  _310
REMARK  130  A    between atoms: _310  and  _311
REMARK  131  A    between atoms: _317  and  _319
REMARK  132  A    between atoms: _319  and  _320
REMARK  133  A    between atoms: _319  and  _322
REMARK  134  A    between atoms: _325  and  _327
REMARK  135  A    between atoms: _327  and  _328
REMARK  136  A    between atoms: _327  and  _330
REMARK  137  A    between atoms: _330  and  _331
REMARK  138  A    between atoms: _334  and  _336
REMARK  139  A    between atoms: _336  and  _337
REMARK  140  A    between atoms: _336  and  _339
REMARK  141  A    between atoms: _339  and  _340
REMARK  142  A    between atoms: _343  and  _345
REMARK  143  A    between atoms: _345  and  _346
REMARK  144  A    between atoms: _345  and  _348
REMARK  145  A    between atoms: _348  and  _349
REMARK  146  A    between atoms: _352  and  _354
REMARK  147  A    between atoms: _354  and  _355
REMARK  148  A    between atoms: _354  and  _357
REMARK  149  A    between atoms: _357  and  _358
REMARK  150  A    between atoms: _361  and  _363
REMARK  151  A    between atoms: _363  and  _364
REMARK  152  A    between atoms: _363  and  _366
REMARK  153  A    between atoms: _366  and  _367
REMARK  154  A    between atoms: _372  and  _373
REMARK  155  A    between atoms: _375  and  _377
REMARK  156  A    between atoms: _377  and  _378
REMARK  157  A    between atoms: _377  and  _380
REMARK  158  A    between atoms: _380  and  _381
REMARK  159  A    between atoms: _386  and  _387
REMARK  160  A    between atoms: _389  and  _391
REMARK  161  A    between atoms: _391  and  _392
REMARK  162  A    between atoms: _391  and  _394
REMARK  163  A    between atoms: _394  and  _395
REMARK  164  A    between atoms: _398  and  _400
REMARK  165  A    between atoms: _400  and  _401
REMARK  166  A    between atoms: _400  and  _403
REMARK  167  A    between atoms: _403  and  _404
REMARK  168  A    between atoms: _404  and  _405
REMARK  169  A    between atoms: _410  and  _412
REMARK  170  A    between atoms: _412  and  _413
REMARK  171  A    between atoms: _412  and  _415
REMARK  172  A    between atoms: _418  and  _420
REMARK  173  A    between atoms: _420  and  _421
REMARK  174  A    between atoms: _420  and  _423
REMARK  175  A    between atoms: _423  and  _424
REMARK  176  A    between atoms: _427  and  _429
REMARK  177  A    between atoms: _429  and  _430
REMARK  178  A    between atoms: _429  and  _432
REMARK  179  A    between atoms: _432  and  _433
REMARK  180  A    between atoms: _435  and  _437
REMARK  181  A    between atoms: _437  and  _438
REMARK  182  A    between atoms: _440  and  _442
REMARK  183  A    between atoms: _442  and  _443
REMARK  184  A    between atoms: _442  and  _445
REMARK  185  A    between atoms: _445  and  _446
REMARK  186  A    between atoms: _446  and  _744
REMARK  187  A    between atoms: _447  and  _449
REMARK  188  A    between atoms: _449  and  _450
REMARK  189  A    between atoms: _449  and  _452
REMARK  190  A    between atoms: _452  and  _453
REMARK  191  A    between atoms: _458  and  _459
REMARK  192  A    between atoms: _461  and  _463
REMARK  193  A    between atoms: _463  and  _464
REMARK  194  A    between atoms: _463  and  _466
REMARK  195  A    between atoms: _466  and  _467
REMARK  196  A    between atoms: _467  and  _468
REMARK  197  A    between atoms: _473  and  _475
REMARK  198  A    between atoms: _475  and  _476
REMARK  199  A    between atoms: _475  and  _478
REMARK  200  A    between atoms: _478  and  _479
REMARK  201  A    between atoms: _479  and  _480
REMARK  202  A    between atoms: _485  and  _487
REMARK  203  A    between atoms: _487  and  _488
REMARK  204  A    between atoms: _487  and  _490
REMARK  205  A    between atoms: _490  and  _491
REMARK  206  A    between atoms: _496  and  _497
REMARK  207  A    between atoms: _499  and  _501
REMARK  208  A    between atoms: _501  and  _502
REMARK  209  A    between atoms: _505  and  _507
REMARK  210  A    between atoms: _507  and  _508
REMARK  211  A    between atoms: _507  and  _510
REMARK  212  A    between atoms: _510  and  _511
REMARK  213  A    between atoms: _516  and  _517
REMARK  214  A    between atoms: _519  and  _521
REMARK  215  A    between atoms: _521  and  _522
REMARK  216  A    between atoms: _521  and  _524
REMARK  217  A    between atoms: _524  and  _525
REMARK  218  A    between atoms: _530  and  _531
REMARK  219  A    between atoms: _533  and  _535
REMARK  220  A    between atoms: _535  and  _536
REMARK  221  A    between atoms: _535  and  _538
REMARK  222  A    between atoms: _538  and  _539
REMARK  223  A    between atoms: _542  and  _544
REMARK  224  A    between atoms: _544  and  _545
REMARK  225  A    between atoms: _544  and  _547
REMARK  226  A    between atoms: _547  and  _548
REMARK  227  A    between atoms: _558  and  _560
REMARK  228  A    between atoms: _560  and  _561
REMARK  229  A    between atoms: _564  and  _566
REMARK  230  A    between atoms: _566  and  _567
REMARK  231  A    between atoms: _570  and  _572
REMARK  232  A    between atoms: _572  and  _573
REMARK  233  A    between atoms: _572  and  _575
REMARK  234  A    between atoms: _575  and  _576
REMARK  235  A    between atoms: _579  and  _581
REMARK  236  A    between atoms: _581  and  _582
REMARK  237  A    between atoms: _581  and  _584
REMARK  238  A    between atoms: _584  and  _585
REMARK  239  A    between atoms: _588  and  _590
REMARK  240  A    between atoms: _590  and  _591
REMARK  241  A    between atoms: _590  and  _593
REMARK  242  A    between atoms: _593  and  _594
REMARK  243  A    between atoms: _597  and  _599
REMARK  244  A    between atoms: _599  and  _600
REMARK  245  A    between atoms: _599  and  _602
REMARK  246  A    between atoms: _602  and  _603
REMARK  247  A    between atoms: _603  and  _604
REMARK  248  A    between atoms: _604  and  _605
REMARK  249  A    between atoms: _605  and  _606
REMARK  250  A    between atoms: _610  and  _612
REMARK  251  A    between atoms: _612  and  _613
REMARK  252  A    between atoms: _612  and  _615
REMARK  253  A    between atoms: _615  and  _616
REMARK  254  A    between atoms: _621  and  _623
REMARK  255  A    between atoms: _623  and  _624
REMARK  256  A    between atoms: _623  and  _626
REMARK  257  A    between atoms: _626  and  _627
REMARK  258  A    between atoms: _627  and  _628
REMARK  259  A    between atoms: _628  and  _629
REMARK  260  A    between atoms: _629  and  _630
REMARK  261  A    between atoms: _634  and  _636
REMARK  262  A    between atoms: _636  and  _637
REMARK  263  A    between atoms: _636  and  _639
REMARK  264  A    between atoms: _639  and  _640
REMARK  265  A    between atoms: _650  and  _652
REMARK  266  A    between atoms: _652  and  _653
REMARK  267  A    between atoms: _656  and  _658
REMARK  268  A    between atoms: _658  and  _659
REMARK  269  A    between atoms: _661  and  _663
REMARK  270  A    between atoms: _663  and  _664
REMARK  271  A    between atoms: _667  and  _669
REMARK  272  A    between atoms: _669  and  _670
REMARK  273  A    between atoms: _673  and  _675
REMARK  274  A    between atoms: _675  and  _676
REMARK  275  A    between atoms: _675  and  _678
REMARK  276  A    between atoms: _678  and  _679
REMARK  277  A    between atoms: _684  and  _685
REMARK  278  A    between atoms: _687  and  _689
REMARK  279  A    between atoms: _689  and  _690
REMARK  280  A    between atoms: _689  and  _692
REMARK  281  A    between atoms: _692  and  _693
REMARK  282  A    between atoms: _698  and  _699
REMARK  283  A    between atoms: _701  and  _703
REMARK  284  A    between atoms: _703  and  _704
REMARK  285  A    between atoms: _703  and  _706
REMARK  286  A    between atoms: _706  and  _707
REMARK  287  A    between atoms: _712  and  _713
REMARK  288  A    between atoms: _715  and  _717
REMARK  289  A    between atoms: _717  and  _718
REMARK  290  A    between atoms: _717  and  _720
REMARK  291  A    between atoms: _720  and  _721
REMARK  292  A    between atoms: _724  and  _726
REMARK  293  A    between atoms: _726  and  _727
REMARK  294  A    between atoms: _729  and  _731
REMARK  295  A    between atoms: _731  and  _732
REMARK  296  A    between atoms: _731  and  _734
REMARK  297  A    between atoms: _734  and  _735
REMARK  298  A    between atoms: _738  and  _740
REMARK  299  A    between atoms: _740  and  _741
REMARK  300  A    between atoms: _740  and  _743
REMARK  301  A    between atoms: _743  and  _744
REMARK  302  A    between atoms: _745  and  _747
REMARK  303  A    between atoms: _747  and  _748
REMARK  304  A    between atoms: _747  and  _750
REMARK  305  A    between atoms: _753  and  _755
REMARK  306  A    between atoms: _755  and  _756
REMARK  307  A    between atoms: _755  and  _758
REMARK  308  A    between atoms: _758  and  _759
REMARK  309  A    between atoms: _759  and  _760
REMARK  310  A    between atoms: _763  and  _765
REMARK  311  A    between atoms: _765  and  _766
REMARK  312  A    between atoms: _765  and  _768
REMARK  313  A    between atoms: _768  and  _769
REMARK  314  A    between atoms: _779  and  _781
REMARK  315  A    between atoms: _781  and  _782
REMARK  316  A    between atoms: _781  and  _784
REMARK  317  A    between atoms: _784  and  _785
REMARK  318  A    between atoms: _788  and  _790
REMARK  319  A    between atoms: _790  and  _791
REMARK  320  A    between atoms: _790  and  _793
REMARK  321  A    between atoms: _793  and  _794
REMARK  322  A    between atoms: _799  and  _800
REMARK                            x       y       z     vdW  Elec       q    Type
REMARK                         _______ _______ _______ _____ _____    ______ ____
ROOT
ATOM      1  O   HOH     1      38.346  56.869  -9.497  0.00  0.00    +0.000 OA
ENDROOT
TORSDOF 0
REMARK  Name = ../refined-set-2016/1fzk/1fzk_pocket.pdb
REMARK  322 active torsions:
REMARK  status: ('A' for Active; 'I' for Inactive)
REMARK    1  A    between atoms: _1  and  _3
REMARK    2  A    between atoms: _3  and  _4
REMARK    3  A    between atoms: _3  and  _6
REMARK    4  A    between atoms: _6  and  _7
REMARK    5  A    between atoms: _10  and  _12
REMARK    6  A    between atoms: _12  and  _13
REMARK    7  A    between atoms: _12  and  _15
REMARK    8  A    between atoms: _15  and  _16
REMARK    9  A    between atoms: _16  and  _17
REMARK   10  A    between atoms: _17  and  _18
REMARK   11  A    between atoms: _27  and  _29
REMARK   12  A    between atoms: _29  and  _30
REMARK   13  A    between atoms: _29  and  _32
REMARK   14  A    between atoms: _32  and  _33
REMARK   15  A    between atoms: _38  and  _39
REMARK   16  A    between atoms: _41  and  _43
REMARK   17  A    between atoms: _43  and  _44
REMARK   18  A    between atoms: _43  and  _46
REMARK   19  A    between atoms: _46  and  _47
REMARK   20  A    between atoms: _53  and  _55
REMARK   21  A    between atoms: _55  and  _56
REMARK   22  A    between atoms: _55  and  _58
REMARK   23  A    between atoms: _61  and  _63
REMARK   24  A    between atoms: _63  and  _64
REMARK   25  A    between atoms: _63  and  _66
REMARK   26  A    between atoms: _66  and  _67
REMARK   27  A    between atoms: _70  and  _72
REMARK   28  A    between atoms: _72  and  _73
REMARK   29  A    between atoms: _72  and  _75
REMARK   30  A    between atoms: _75  and  _76
REMARK   31  A    between atoms: _81  and  _82
REMARK   32  A    between atoms: _84  and  _86
REMARK   33  A    between atoms: _86  and  _87
REMARK   34  A    between atoms: _86  and  _89
REMARK   35  A    between atoms: _89  and  _90
REMARK   36  A    between atoms: _90  and  _91
REMARK   37  A    between atoms: _93  and  _95
REMARK   38  A    between atoms: _95  and  _96
REMARK   39  A    between atoms: _95  and  _98
REMARK   40  A    between atoms: _98  and  _99
REMARK   41  A    between atoms: _99  and  _100
REMARK   42  A    between atoms: _103  and  _105
REMARK   43  A    between atoms: _105  and  _106
REMARK   44  A    between atoms: _105  and  _108
REMARK   45  A    between atoms: _111  and  _113
REMARK   46  A    between atoms: _113  and  _114
REMARK   47  A    between atoms: _116  and  _118
REMARK   48  A    between atoms: _118  and  _119
REMARK   49  A    between atoms: _118  and  _121
REMARK   50  A    between atoms: _124  and  _126
REMARK   51  A    between atoms: _126  and  _127
REMARK   52  A    between atoms: _126  and  _129
REMARK   53  A    between atoms: _129  and  _130
REMARK   54  A    between atoms: _136  and  _138
REMARK   55  A    between atoms: _138  and  _139
REMARK   56  A    between atoms: _138  and  _141
REMARK   57  A    between atoms: _144  and  _146
REMARK   58  A    between atoms: _146  and  _147
REMARK   59  A    between atoms: _146  and  _149
REMARK   60  A    between atoms: _149  and  _150
REMARK   61  A    between atoms: _155  and  _156
REMARK   62  A    between atoms: _158  and  _160
REMARK   63  A    between atoms: _160  and  _161
REMARK   64  A    between atoms: _160  and  _163
REMARK   65  A    between atoms: _163  and  _164
REMARK   66  A    between atoms: _164  and  _165
REMARK   67  A    between atoms: _167  and  _169
REMARK   68  A    between atoms: _169  and  _170
REMARK   69  A    between atoms: _169  and  _172
REMARK   70  A    between atoms: _172  and  _173
REMARK   71  A    between atoms: _173  and  _174
REMARK   72  A    between atoms: _177  and  _179
REMARK   73  A    between atoms: _179  and  _180
REMARK   74  A    between atoms: _179  and  _182
REMARK   75  A    between atoms: _182  and  _183
REMARK   76  A    between atoms: _183  and  _184
REMARK   77  A    between atoms: _187  and  _189
REMARK   78  A    between atoms: _189  and  _190
REMARK   79  A    between atoms: _189  and  _192
REMARK   80  A    between atoms: _192  and  _193
REMARK   81  A    between atoms: _198  and  _199
REMARK   82  A    between atoms: _201  and  _203
REMARK   83  A    between atoms: _203  and  _204
REMARK   84  A    between atoms: _203  and  _206
REMARK   85  A    between atoms: _206  and  _207
REMARK   86  A    between atoms: _207  and  _208
REMARK   87  A    between atoms: _208  and  _209
REMARK   88  A    between atoms: _218  and  _220
REMARK   89  A    between atoms: _220  and  _221
REMARK   90  A    between atoms: _220  and  _223
REMARK   91  A    between atoms: _223  and  _224
REMARK   92  A    between atoms: _224  and  _225
REMARK   93  A    between atoms: _228  and  _230
REMARK   94  A    between atoms: _230  and  _231
REMARK   95  A    between atoms: _230  and  _233
REMARK   96  A    between atoms: _233  and  _234
REMARK   97  A    between atoms: _234  and  _235
REMARK   98  A    between atoms: _240  and  _242
REMARK   99  A    between atoms: _242  and  _243
REMARK  100  A    between atoms: _242  and  _245
REMARK  101  A    between atoms: _245  and  _246
REMARK  102  A    between atoms: _246  and  _247
REMARK  103  A    between atoms: _247  and  _248
REMARK  104  A    between atoms: _248  and  _249
REMARK  105  A    between atoms: _253  and  _255
REMARK  106  A    between atoms: _255  and  _256
REMARK  107  A    between atoms: _259  and  _261
REMARK  108  A    between atoms: _261  and  _262
REMARK  109  A    between atoms: _264  and  _266
REMARK  110  A    between atoms: _266  and  _267
REMARK  111  A    between atoms: _266  and  _269
REMARK  112  A    between atoms: _269  and  _270
REMARK  113  A    between atoms: _275  and  _277
REMARK  114  A    between atoms: _277  and  _278
REMARK  115  A    between atoms: _277  and  _280
REMARK  116  A    between atoms: _280  and  _281
REMARK  117  A    between atoms: _281  and  _282
REMARK  118  A    between atoms: _285  and  _287
REMARK  119  A    between atoms: _287  and  _288
REMARK  120  A    between atoms: _287  and  _290
REMARK  121  A    between atoms: _290  and  _291
REMARK  122  A    between atoms: _291  and  _292
REMARK  123  A    between atoms: _297  and  _299
REMARK  124  A    between atoms: _299  and  _300
REMARK  125  A    between atoms: _299  and  _302
REMARK  126  A    between atoms: _302  and  _303
REMARK  127  A    between atoms: _305  and  _307
REMARK  128  A    between atoms: _307  and  _308
REMARK  129  A    between atoms: _307  and  _310
REMARK  130  A    between atoms: _310  and  _311
REMARK  131  A    between atoms: _317  and  _319
REMARK  132  A    between atoms: _319  and  _320
REMARK  133  A    between atoms: _319  and  _322
REMARK  134  A    between atoms: _325  and  _327
REMARK  135  A    between atoms: _327  and  _328
REMARK  136  A    between atoms: _327  and  _330
REMARK  137  A    between atoms: _330  and  _331
REMARK  138  A    between atoms: _334  and  _336
REMARK  139  A    between atoms: _336  and  _337
REMARK  140  A    between atoms: _336  and  _339
REMARK  141  A    between atoms: _339  and  _340
REMARK  142  A    between atoms: _343  and  _345
REMARK  143  A    between atoms: _345  and  _346
REMARK  144  A    between atoms: _345  and  _348
REMARK  145  A    between atoms: _348  and  _349
REMARK  146  A    between atoms: _352  and  _354
REMARK  147  A    between atoms: _354  and  _355
REMARK  148  A    between atoms: _354  and  _357
REMARK  149  A    between atoms: _357  and  _358
REMARK  150  A    between atoms: _361  and  _363
REMARK  151  A    between atoms: _363  and  _364
REMARK  152  A    between atoms: _363  and  _366
REMARK  153  A    between atoms: _366  and  _367
REMARK  154  A    between atoms: _372  and  _373
REMARK  155  A    between atoms: _375  and  _377
REMARK  156  A    between atoms: _377  and  _378
REMARK  157  A    between atoms: _377  and  _380
REMARK  158  A    between atoms: _380  and  _381
REMARK  159  A    between atoms: _386  and  _387
REMARK  160  A    between atoms: _389  and  _391
REMARK  161  A    between atoms: _391  and  _392
REMARK  162  A    between atoms: _391  and  _394
REMARK  163  A    between atoms: _394  and  _395
REMARK  164  A    between atoms: _398  and  _400
REMARK  165  A    between atoms: _400  and  _401
REMARK  166  A    between atoms: _400  and  _403
REMARK  167  A    between atoms: _403  and  _404
REMARK  168  A    between atoms: _404  and  _405
REMARK  169  A    between atoms: _410  and  _412
REMARK  170  A    between atoms: _412  and  _413
REMARK  171  A    between atoms: _412  and  _415
REMARK  172  A    between atoms: _418  and  _420
REMARK  173  A    between atoms: _420  and  _421
REMARK  174  A    between atoms: _420  and  _423
REMARK  175  A    between atoms: _423  and  _424
REMARK  176  A    between atoms: _427  and  _429
REMARK  177  A    between atoms: _429  and  _430
REMARK  178  A    between atoms: _429  and  _432
REMARK  179  A    between atoms: _432  and  _433
REMARK  180  A    between atoms: _435  and  _437
REMARK  181  A    between atoms: _437  and  _438
REMARK  182  A    between atoms: _440  and  _442
REMARK  183  A    between atoms: _442  and  _443
REMARK  184  A    between atoms: _442  and  _445
REMARK  185  A    between atoms: _445  and  _446
REMARK  186  A    between atoms: _446  and  _744
REMARK  187  A    between atoms: _447  and  _449
REMARK  188  A    between atoms: _449  and  _450
REMARK  189  A    between atoms: _449  and  _452
REMARK  190  A    between atoms: _452  and  _453
REMARK  191  A    between atoms: _458  and  _459
REMARK  192  A    between atoms: _461  and  _463
REMARK  193  A    between atoms: _463  and  _464
REMARK  194  A    between atoms: _463  and  _466
REMARK  195  A    between atoms: _466  and  _467
REMARK  196  A    between atoms: _467  and  _468
REMARK  197  A    between atoms: _473  and  _475
REMARK  198  A    between atoms: _475  and  _476
REMARK  199  A    between atoms: _475  and  _478
REMARK  200  A    between atoms: _478  and  _479
REMARK  201  A    between atoms: _479  and  _480
REMARK  202  A    between atoms: _485  and  _487
REMARK  203  A    between atoms: _487  and  _488
REMARK  204  A    between atoms: _487  and  _490
REMARK  205  A    between atoms: _490  and  _491
REMARK  206  A    between atoms: _496  and  _497
REMARK  207  A    between atoms: _499  and  _501
REMARK  208  A    between atoms: _501  and  _502
REMARK  209  A    between atoms: _505  and  _507
REMARK  210  A    between atoms: _507  and  _508
REMARK  211  A    between atoms: _507  and  _510
REMARK  212  A    between atoms: _510  and  _511
REMARK  213  A    between atoms: _516  and  _517
REMARK  214  A    between atoms: _519  and  _521
REMARK  215  A    between atoms: _521  and  _522
REMARK  216  A    between atoms: _521  and  _524
REMARK  217  A    between atoms: _524  and  _525
REMARK  218  A    between atoms: _530  and  _531
REMARK  219  A    between atoms: _533  and  _535
REMARK  220  A    between atoms: _535  and  _536
REMARK  221  A    between atoms: _535  and  _538
REMARK  222  A    between atoms: _538  and  _539
REMARK  223  A    between atoms: _542  and  _544
REMARK  224  A    between atoms: _544  and  _545
REMARK  225  A    between atoms: _544  and  _547
REMARK  226  A    between atoms: _547  and  _548
REMARK  227  A    between atoms: _558  and  _560
REMARK  228  A    between atoms: _560  and  _561
REMARK  229  A    between atoms: _564  and  _566
REMARK  230  A    between atoms: _566  and  _567
REMARK  231  A    between atoms: _570  and  _572
REMARK  232  A    between atoms: _572  and  _573
REMARK  233  A    between atoms: _572  and  _575
REMARK  234  A    between atoms: _575  and  _576
REMARK  235  A    between atoms: _579  and  _581
REMARK  236  A    between atoms: _581  and  _582
REMARK  237  A    between atoms: _581  and  _584
REMARK  238  A    between atoms: _584  and  _585
REMARK  239  A    between atoms: _588  and  _590
REMARK  240  A    between atoms: _590  and  _591
REMARK  241  A    between atoms: _590  and  _593
REMARK  242  A    between atoms: _593  and  _594
REMARK  243  A    between atoms: _597  and  _599
REMARK  244  A    between atoms: _599  and  _600
REMARK  245  A    between atoms: _599  and  _602
REMARK  246  A    between atoms: _602  and  _603
REMARK  247  A    between atoms: _603  and  _604
REMARK  248  A    between atoms: _604  and  _605
REMARK  249  A    between atoms: _605  and  _606
REMARK  250  A    between atoms: _610  and  _612
REMARK  251  A    between atoms: _612  and  _613
REMARK  252  A    between atoms: _612  and  _615
REMARK  253  A    between atoms: _615  and  _616
REMARK  254  A    between atoms: _621  and  _623
REMARK  255  A    between atoms: _623  and  _624
REMARK  256  A    between atoms: _623  and  _626
REMARK  257  A    between atoms: _626  and  _627
REMARK  258  A    between atoms: _627  and  _628
REMARK  259  A    between atoms: _628  and  _629
REMARK  260  A    between atoms: _629  and  _630
REMARK  261  A    between atoms: _634  and  _636
REMARK  262  A    between atoms: _636  and  _637
REMARK  263  A    between atoms: _636  and  _639
REMARK  264  A    between atoms: _639  and  _640
REMARK  265  A    between atoms: _650  and  _652
REMARK  266  A    between atoms: _652  and  _653
REMARK  267  A    between atoms: _656  and  _658
REMARK  268  A    between atoms: _658  and  _659
REMARK  269  A    between atoms: _661  and  _663
REMARK  270  A    between atoms: _663  and  _664
REMARK  271  A    between atoms: _667  and  _669
REMARK  272  A    between atoms: _669  and  _670
REMARK  273  A    between atoms: _673  and  _675
REMARK  274  A    between atoms: _675  and  _676
REMARK  275  A    between atoms: _675  and  _678
REMARK  276  A    between atoms: _678  and  _679
REMARK  277  A    between atoms: _684  and  _685
REMARK  278  A    between atoms: _687  and  _689
REMARK  279  A    between atoms: _689  and  _690
REMARK  280  A    between atoms: _689  and  _692
REMARK  281  A    between atoms: _692  and  _693
REMARK  282  A    between atoms: _698  and  _699
REMARK  283  A    between atoms: _701  and  _703
REMARK  284  A    between atoms: _703  and  _704
REMARK  285  A    between atoms: _703  and  _706
REMARK  286  A    between atoms: _706  and  _707
REMARK  287  A    between atoms: _712  and  _713
REMARK  288  A    between atoms: _715  and  _717
REMARK  289  A    between atoms: _717  and  _718
REMARK  290  A    between atoms: _717  and  _720
REMARK  291  A    between atoms: _720  and  _721
REMARK  292  A    between atoms: _724  and  _726
REMARK  293  A    between atoms: _726  and  _727
REMARK  294  A    between atoms: _729  and  _731
REMARK  295  A    between atoms: _731  and  _732
REMARK  296  A    between atoms: _731  and  _734
REMARK  297  A    between atoms: _734  and  _735
REMARK  298  A    between atoms: _738  and  _740
REMARK  299  A    between atoms: _740  and  _741
REMARK  300  A    between atoms: _740  and  _743
REMARK  301  A    between atoms: _743  and  _744
REMARK  302  A    between atoms: _745  and  _747
REMARK  303  A    between atoms: _747  and  _748
REMARK  304  A    between atoms: _747  and  _750
REMARK  305  A    between atoms: _753  and  _755
REMARK  306  A    between atoms: _755  and  _756
REMARK  307  A    between atoms: _755  and  _758
REMARK  308  A    between atoms: _758  and  _759
REMARK  309  A    between atoms: _759  and  _760
REMARK  310  A    between atoms: _763  and  _765
REMARK  311  A    between atoms: _765  and  _766
REMARK  312  A    between atoms: _765  and  _768
REMARK  313  A    between atoms: _768  and  _769
REMARK  314  A    between atoms: _779  and  _781
REMARK  315  A    between atoms: _781  and  _782
REMARK  316  A    between atoms: _781  and  _784
REMARK  317  A    between atoms: _784  and  _785
REMARK  318  A    between atoms: _788  and  _790
REMARK  319  A    between atoms: _790  and  _791
REMARK  320  A    between atoms: _790  and  _793
REMARK  321  A    between atoms: _793  and  _794
REMARK  322  A    between atoms: _799  and  _800
REMARK                            x       y       z     vdW  Elec       q    Type
REMARK                         _______ _______ _______ _____ _____    ______ ____
ROOT
ATOM      1  O   HOH     1      53.628  64.475  -1.512  0.00  0.00    +0.000 OA
ENDROOT
TORSDOF 0
REMARK  Name = ../refined-set-2016/1fzk/1fzk_pocket.pdb
REMARK  322 active torsions:
REMARK  status: ('A' for Active; 'I' for Inactive)
REMARK    1  A    between atoms: _1  and  _3
REMARK    2  A    between atoms: _3  and  _4
REMARK    3  A    between atoms: _3  and  _6
REMARK    4  A    between atoms: _6  and  _7
REMARK    5  A    between atoms: _10  and  _12
REMARK    6  A    between atoms: _12  and  _13
REMARK    7  A    between atoms: _12  and  _15
REMARK    8  A    between atoms: _15  and  _16
REMARK    9  A    between atoms: _16  and  _17
REMARK   10  A    between atoms: _17  and  _18
REMARK   11  A    between atoms: _27  and  _29
REMARK   12  A    between atoms: _29  and  _30
REMARK   13  A    between atoms: _29  and  _32
REMARK   14  A    between atoms: _32  and  _33
REMARK   15  A    between atoms: _38  and  _39
REMARK   16  A    between atoms: _41  and  _43
REMARK   17  A    between atoms: _43  and  _44
REMARK   18  A    between atoms: _43  and  _46
REMARK   19  A    between atoms: _46  and  _47
REMARK   20  A    between atoms: _53  and  _55
REMARK   21  A    between atoms: _55  and  _56
REMARK   22  A    between atoms: _55  and  _58
REMARK   23  A    between atoms: _61  and  _63
REMARK   24  A    between atoms: _63  and  _64
REMARK   25  A    between atoms: _63  and  _66
REMARK   26  A    between atoms: _66  and  _67
REMARK   27  A    between atoms: _70  and  _72
REMARK   28  A    between atoms: _72  and  _73
REMARK   29  A    between atoms: _72  and  _75
REMARK   30  A    between atoms: _75  and  _76
REMARK   31  A    between atoms: _81  and  _82
REMARK   32  A    between atoms: _84  and  _86
REMARK   33  A    between atoms: _86  and  _87
REMARK   34  A    between atoms: _86  and  _89
REMARK   35  A    between atoms: _89  and  _90
REMARK   36  A    between atoms: _90  and  _91
REMARK   37  A    between atoms: _93  and  _95
REMARK   38  A    between atoms: _95  and  _96
REMARK   39  A    between atoms: _95  and  _98
REMARK   40  A    between atoms: _98  and  _99
REMARK   41  A    between atoms: _99  and  _100
REMARK   42  A    between atoms: _103  and  _105
REMARK   43  A    between atoms: _105  and  _106
REMARK   44  A    between atoms: _105  and  _108
REMARK   45  A    between atoms: _111  and  _113
REMARK   46  A    between atoms: _113  and  _114
REMARK   47  A    between atoms: _116  and  _118
REMARK   48  A    between atoms: _118  and  _119
REMARK   49  A    between atoms: _118  and  _121
REMARK   50  A    between atoms: _124  and  _126
REMARK   51  A    between atoms: _126  and  _127
REMARK   52  A    between atoms: _126  and  _129
REMARK   53  A    between atoms: _129  and  _130
REMARK   54  A    between atoms: _136  and  _138
REMARK   55  A    between atoms: _138  and  _139
REMARK   56  A    between atoms: _138  and  _141
REMARK   57  A    between atoms: _144  and  _146
REMARK   58  A    between atoms: _146  and  _147
REMARK   59  A    between atoms: _146  and  _149
REMARK   60  A    between atoms: _149  and  _150
REMARK   61  A    between atoms: _155  and  _156
REMARK   62  A    between atoms: _158  and  _160
REMARK   63  A    between atoms: _160  and  _161
REMARK   64  A    between atoms: _160  and  _163
REMARK   65  A    between atoms: _163  and  _164
REMARK   66  A    between atoms: _164  and  _165
REMARK   67  A    between atoms: _167  and  _169
REMARK   68  A    between atoms: _169  and  _170
REMARK   69  A    between atoms: _169  and  _172
REMARK   70  A    between atoms: _172  and  _173
REMARK   71  A    between atoms: _173  and  _174
REMARK   72  A    between atoms: _177  and  _179
REMARK   73  A    between atoms: _179  and  _180
REMARK   74  A    between atoms: _179  and  _182
REMARK   75  A    between atoms: _182  and  _183
REMARK   76  A    between atoms: _183  and  _184
REMARK   77  A    between atoms: _187  and  _189
REMARK   78  A    between atoms: _189  and  _190
REMARK   79  A    between atoms: _189  and  _192
REMARK   80  A    between atoms: _192  and  _193
REMARK   81  A    between atoms: _198  and  _199
REMARK   82  A    between atoms: _201  and  _203
REMARK   83  A    between atoms: _203  and  _204
REMARK   84  A    between atoms: _203  and  _206
REMARK   85  A    between atoms: _206  and  _207
REMARK   86  A    between atoms: _207  and  _208
REMARK   87  A    between atoms: _208  and  _209
REMARK   88  A    between atoms: _218  and  _220
REMARK   89  A    between atoms: _220  and  _221
REMARK   90  A    between atoms: _220  and  _223
REMARK   91  A    between atoms: _223  and  _224
REMARK   92  A    between atoms: _224  and  _225
REMARK   93  A    between atoms: _228  and  _230
REMARK   94  A    between atoms: _230  and  _231
REMARK   95  A    between atoms: _230  and  _233
REMARK   96  A    between atoms: _233  and  _234
REMARK   97  A    between atoms: _234  and  _235
REMARK   98  A    between atoms: _240  and  _242
REMARK   99  A    between atoms: _242  and  _243
REMARK  100  A    between atoms: _242  and  _245
REMARK  101  A    between atoms: _245  and  _246
REMARK  102  A    between atoms: _246  and  _247
REMARK  103  A    between atoms: _247  and  _248
REMARK  104  A    between atoms: _248  and  _249
REMARK  105  A    between atoms: _253  and  _255
REMARK  106  A    between atoms: _255  and  _256
REMARK  107  A    between atoms: _259  and  _261
REMARK  108  A    between atoms: _261  and  _262
REMARK  109  A    between atoms: _264  and  _266
REMARK  110  A    between atoms: _266  and  _267
REMARK  111  A    between atoms: _266  and  _269
REMARK  112  A    between atoms: _269  and  _270
REMARK  113  A    between atoms: _275  and  _277
REMARK  114  A    between atoms: _277  and  _278
REMARK  115  A    between atoms: _277  and  _280
REMARK  116  A    between atoms: _280  and  _281
REMARK  117  A    between atoms: _281  and  _282
REMARK  118  A    between atoms: _285  and  _287
REMARK  119  A    between atoms: _287  and  _288
REMARK  120  A    between atoms: _287  and  _290
REMARK  121  A    between atoms: _290  and  _291
REMARK  122  A    between atoms: _291  and  _292
REMARK  123  A    between atoms: _297  and  _299
REMARK  124  A    between atoms: _299  and  _300
REMARK  125  A    between atoms: _299  and  _302
REMARK  126  A    between atoms: _302  and  _303
REMARK  127  A    between atoms: _305  and  _307
REMARK  128  A    between atoms: _307  and  _308
REMARK  129  A    between atoms: _307  and  _310
REMARK  130  A    between atoms: _310  and  _311
REMARK  131  A    between atoms: _317  and  _319
REMARK  132  A    between atoms: _319  and  _320
REMARK  133  A    between atoms: _319  and  _322
REMARK  134  A    between atoms: _325  and  _327
REMARK  135  A    between atoms: _327  and  _328
REMARK  136  A    between atoms: _327  and  _330
REMARK  137  A    between atoms: _330  and  _331
REMARK  138  A    between atoms: _334  and  _336
REMARK  139  A    between atoms: _336  and  _337
REMARK  140  A    between atoms: _336  and  _339
REMARK  141  A    between atoms: _339  and  _340
REMARK  142  A    between atoms: _343  and  _345
REMARK  143  A    between atoms: _345  and  _346
REMARK  144  A    between atoms: _345  and  _348
REMARK  145  A    between atoms: _348  and  _349
REMARK  146  A    between atoms: _352  and  _354
REMARK  147  A    between atoms: _354  and  _355
REMARK  148  A    between atoms: _354  and  _357
REMARK  149  A    between atoms: _357  and  _358
REMARK  150  A    between atoms: _361  and  _363
REMARK  151  A    between atoms: _363  and  _364
REMARK  152  A    between atoms: _363  and  _366
REMARK  153  A    between atoms: _366  and  _367
REMARK  154  A    between atoms: _372  and  _373
REMARK  155  A    between atoms: _375  and  _377
REMARK  156  A    between atoms: _377  and  _378
REMARK  157  A    between atoms: _377  and  _380
REMARK  158  A    between atoms: _380  and  _381
REMARK  159  A    between atoms: _386  and  _387
REMARK  160  A    between atoms: _389  and  _391
REMARK  161  A    between atoms: _391  and  _392
REMARK  162  A    between atoms: _391  and  _394
REMARK  163  A    between atoms: _394  and  _395
REMARK  164  A    between atoms: _398  and  _400
REMARK  165  A    between atoms: _400  and  _401
REMARK  166  A    between atoms: _400  and  _403
REMARK  167  A    between atoms: _403  and  _404
REMARK  168  A    between atoms: _404  and  _405
REMARK  169  A    between atoms: _410  and  _412
REMARK  170  A    between atoms: _412  and  _413
REMARK  171  A    between atoms: _412  and  _415
REMARK  172  A    between atoms: _418  and  _420
REMARK  173  A    between atoms: _420  and  _421
REMARK  174  A    between atoms: _420  and  _423
REMARK  175  A    between atoms: _423  and  _424
REMARK  176  A    between atoms: _427  and  _429
REMARK  177  A    between atoms: _429  and  _430
REMARK  178  A    between atoms: _429  and  _432
REMARK  179  A    between atoms: _432  and  _433
REMARK  180  A    between atoms: _435  and  _437
REMARK  181  A    between atoms: _437  and  _438
REMARK  182  A    between atoms: _440  and  _442
REMARK  183  A    between atoms: _442  and  _443
REMARK  184  A    between atoms: _442  and  _445
REMARK  185  A    between atoms: _445  and  _446
REMARK  186  A    between atoms: _446  and  _744
REMARK  187  A    between atoms: _447  and  _449
REMARK  188  A    between atoms: _449  and  _450
REMARK  189  A    between atoms: _449  and  _452
REMARK  190  A    between atoms: _452  and  _453
REMARK  191  A    between atoms: _458  and  _459
REMARK  192  A    between atoms: _461  and  _463
REMARK  193  A    between atoms: _463  and  _464
REMARK  194  A    between atoms: _463  and  _466
REMARK  195  A    between atoms: _466  and  _467
REMARK  196  A    between atoms: _467  and  _468
REMARK  197  A    between atoms: _473  and  _475
REMARK  198  A    between atoms: _475  and  _476
REMARK  199  A    between atoms: _475  and  _478
REMARK  200  A    between atoms: _478  and  _479
REMARK  201  A    between atoms: _479  and  _480
REMARK  202  A    between atoms: _485  and  _487
REMARK  203  A    between atoms: _487  and  _488
REMARK  204  A    between atoms: _487  and  _490
REMARK  205  A    between atoms: _490  and  _491
REMARK  206  A    between atoms: _496  and  _497
REMARK  207  A    between atoms: _499  and  _501
REMARK  208  A    between atoms: _501  and  _502
REMARK  209  A    between atoms: _505  and  _507
REMARK  210  A    between atoms: _507  and  _508
REMARK  211  A    between atoms: _507  and  _510
REMARK  212  A    between atoms: _510  and  _511
REMARK  213  A    between atoms: _516  and  _517
REMARK  214  A    between atoms: _519  and  _521
REMARK  215  A    between atoms: _521  and  _522
REMARK  216  A    between atoms: _521  and  _524
REMARK  217  A    between atoms: _524  and  _525
REMARK  218  A    between atoms: _530  and  _531
REMARK  219  A    between atoms: _533  and  _535
REMARK  220  A    between atoms: _535  and  _536
REMARK  221  A    between atoms: _535  and  _538
REMARK  222  A    between atoms: _538  and  _539
REMARK  223  A    between atoms: _542  and  _544
REMARK  224  A    between atoms: _544  and  _545
REMARK  225  A    between atoms: _544  and  _547
REMARK  226  A    between atoms: _547  and  _548
REMARK  227  A    between atoms: _558  and  _560
REMARK  228  A    between atoms: _560  and  _561
REMARK  229  A    between atoms: _564  and  _566
REMARK  230  A    between atoms: _566  and  _567
REMARK  231  A    between atoms: _570  and  _572
REMARK  232  A    between atoms: _572  and  _573
REMARK  233  A    between atoms: _572  and  _575
REMARK  234  A    between atoms: _575  and  _576
REMARK  235  A    between atoms: _579  and  _581
REMARK  236  A    between atoms: _581  and  _582
REMARK  237  A    between atoms: _581  and  _584
REMARK  238  A    between atoms: _584  and  _585
REMARK  239  A    between atoms: _588  and  _590
REMARK  240  A    between atoms: _590  and  _591
REMARK  241  A    between atoms: _590  and  _593
REMARK  242  A    between atoms: _593  and  _594
REMARK  243  A    between atoms: _597  and  _599
REMARK  244  A    between atoms: _599  and  _600
REMARK  245  A    between atoms: _599  and  _602
REMARK  246  A    between atoms: _602  and  _603
REMARK  247  A    between atoms: _603  and  _604
REMARK  248  A    between atoms: _604  and  _605
REMARK  249  A    between atoms: _605  and  _606
REMARK  250  A    between atoms: _610  and  _612
REMARK  251  A    between atoms: _612  and  _613
REMARK  252  A    between atoms: _612  and  _615
REMARK  253  A    between atoms: _615  and  _616
REMARK  254  A    between atoms: _621  and  _623
REMARK  255  A    between atoms: _623  and  _624
REMARK  256  A    between atoms: _623  and  _626
REMARK  257  A    between atoms: _626  and  _627
REMARK  258  A    between atoms: _627  and  _628
REMARK  259  A    between atoms: _628  and  _629
REMARK  260  A    between atoms: _629  and  _630
REMARK  261  A    between atoms: _634  and  _636
REMARK  262  A    between atoms: _636  and  _637
REMARK  263  A    between atoms: _636  and  _639
REMARK  264  A    between atoms: _639  and  _640
REMARK  265  A    between atoms: _650  and  _652
REMARK  266  A    between atoms: _652  and  _653
REMARK  267  A    between atoms: _656  and  _658
REMARK  268  A    between atoms: _658  and  _659
REMARK  269  A    between atoms: _661  and  _663
REMARK  270  A    between atoms: _663  and  _664
REMARK  271  A    between atoms: _667  and  _669
REMARK  272  A    between atoms: _669  and  _670
REMARK  273  A    between atoms: _673  and  _675
REMARK  274  A    between atoms: _675  and  _676
REMARK  275  A    between atoms: _675  and  _678
REMARK  276  A    between atoms: _678  and  _679
REMARK  277  A    between atoms: _684  and  _685
REMARK  278  A    between atoms: _687  and  _689
REMARK  279  A    between atoms: _689  and  _690
REMARK  280  A    between atoms: _689  and  _692
REMARK  281  A    between atoms: _692  and  _693
REMARK  282  A    between atoms: _698  and  _699
REMARK  283  A    between atoms: _701  and  _703
REMARK  284  A    between atoms: _703  and  _704
REMARK  285  A    between atoms: _703  and  _706
REMARK  286  A    between atoms: _706  and  _707
REMARK  287  A    between atoms: _712  and  _713
REMARK  288  A    between atoms: _715  and  _717
REMARK  289  A    between atoms: _717  and  _718
REMARK  290  A    between atoms: _717  and  _720
REMARK  291  A    between atoms: _720  and  _721
REMARK  292  A    between atoms: _724  and  _726
REMARK  293  A    between atoms: _726  and  _727
REMARK  294  A    between atoms: _729  and  _731
REMARK  295  A    between atoms: _731  and  _732
REMARK  296  A    between atoms: _731  and  _734
REMARK  297  A    between atoms: _734  and  _735
REMARK  298  A    between atoms: _738  and  _740
REMARK  299  A    between atoms: _740  and  _741
REMARK  300  A    between atoms: _740  and  _743
REMARK  301  A    between atoms: _743  and  _744
REMARK  302  A    between atoms: _745  and  _747
REMARK  303  A    between atoms: _747  and  _748
REMARK  304  A    between atoms: _747  and  _750
REMARK  305  A    between atoms: _753  and  _755
REMARK  306  A    between atoms: _755  and  _756
REMARK  307  A    between atoms: _755  and  _758
REMARK  308  A    between atoms: _758  and  _759
REMARK  309  A    between atoms: _759  and  _760
REMARK  310  A    between atoms: _763  and  _765
REMARK  311  A    between atoms: _765  and  _766
REMARK  312  A    between atoms: _765  and  _768
REMARK  313  A    between atoms: _768  and  _769
REMARK  314  A    between atoms: _779  and  _781
REMARK  315  A    between atoms: _781  and  _782
REMARK  316  A    between atoms: _781  and  _784
REMARK  317  A    between atoms: _784  and  _785
REMARK  318  A    between atoms: _788  and  _790
REMARK  319  A    between atoms: _790  and  _791
REMARK  320  A    between atoms: _790  and  _793
REMARK  321  A    between atoms: _793  and  _794
REMARK  322  A    between atoms: _799  and  _800
REMARK                            x       y       z     vdW  Elec       q    Type
REMARK                         _______ _______ _______ _____ _____    ______ ____
ROOT
ATOM      1  O   HOH     1      50.137  64.863  -5.026  0.00  0.00    +0.000 OA
ENDROOT
TORSDOF 0
REMARK  Name = ../refined-set-2016/1fzk/1fzk_pocket.pdb
REMARK  322 active torsions:
REMARK  status: ('A' for Active; 'I' for Inactive)
REMARK    1  A    between atoms: _1  and  _3
REMARK    2  A    between atoms: _3  and  _4
REMARK    3  A    between atoms: _3  and  _6
REMARK    4  A    between atoms: _6  and  _7
REMARK    5  A    between atoms: _10  and  _12
REMARK    6  A    between atoms: _12  and  _13
REMARK    7  A    between atoms: _12  and  _15
REMARK    8  A    between atoms: _15  and  _16
REMARK    9  A    between atoms: _16  and  _17
REMARK   10  A    between atoms: _17  and  _18
REMARK   11  A    between atoms: _27  and  _29
REMARK   12  A    between atoms: _29  and  _30
REMARK   13  A    between atoms: _29  and  _32
REMARK   14  A    between atoms: _32  and  _33
REMARK   15  A    between atoms: _38  and  _39
REMARK   16  A    between atoms: _41  and  _43
REMARK   17  A    between atoms: _43  and  _44
REMARK   18  A    between atoms: _43  and  _46
REMARK   19  A    between atoms: _46  and  _47
REMARK   20  A    between atoms: _53  and  _55
REMARK   21  A    between atoms: _55  and  _56
REMARK   22  A    between atoms: _55  and  _58
REMARK   23  A    between atoms: _61  and  _63
REMARK   24  A    between atoms: _63  and  _64
REMARK   25  A    between atoms: _63  and  _66
REMARK   26  A    between atoms: _66  and  _67
REMARK   27  A    between atoms: _70  and  _72
REMARK   28  A    between atoms: _72  and  _73
REMARK   29  A    between atoms: _72  and  _75
REMARK   30  A    between atoms: _75  and  _76
REMARK   31  A    between atoms: _81  and  _82
REMARK   32  A    between atoms: _84  and  _86
REMARK   33  A    between atoms: _86  and  _87
REMARK   34  A    between atoms: _86  and  _89
REMARK   35  A    between atoms: _89  and  _90
REMARK   36  A    between atoms: _90  and  _91
REMARK   37  A    between atoms: _93  and  _95
REMARK   38  A    between atoms: _95  and  _96
REMARK   39  A    between atoms: _95  and  _98
REMARK   40  A    between atoms: _98  and  _99
REMARK   41  A    between atoms: _99  and  _100
REMARK   42  A    between atoms: _103  and  _105
REMARK   43  A    between atoms: _105  and  _106
REMARK   44  A    between atoms: _105  and  _108
REMARK   45  A    between atoms: _111  and  _113
REMARK   46  A    between atoms: _113  and  _114
REMARK   47  A    between atoms: _116  and  _118
REMARK   48  A    between atoms: _118  and  _119
REMARK   49  A    between atoms: _118  and  _121
REMARK   50  A    between atoms: _124  and  _126
REMARK   51  A    between atoms: _126  and  _127
REMARK   52  A    between atoms: _126  and  _129
REMARK   53  A    between atoms: _129  and  _130
REMARK   54  A    between atoms: _136  and  _138
REMARK   55  A    between atoms: _138  and  _139
REMARK   56  A    between atoms: _138  and  _141
REMARK   57  A    between atoms: _144  and  _146
REMARK   58  A    between atoms: _146  and  _147
REMARK   59  A    between atoms: _146  and  _149
REMARK   60  A    between atoms: _149  and  _150
REMARK   61  A    between atoms: _155  and  _156
REMARK   62  A    between atoms: _158  and  _160
REMARK   63  A    between atoms: _160  and  _161
REMARK   64  A    between atoms: _160  and  _163
REMARK   65  A    between atoms: _163  and  _164
REMARK   66  A    between atoms: _164  and  _165
REMARK   67  A    between atoms: _167  and  _169
REMARK   68  A    between atoms: _169  and  _170
REMARK   69  A    between atoms: _169  and  _172
REMARK   70  A    between atoms: _172  and  _173
REMARK   71  A    between atoms: _173  and  _174
REMARK   72  A    between atoms: _177  and  _179
REMARK   73  A    between atoms: _179  and  _180
REMARK   74  A    between atoms: _179  and  _182
REMARK   75  A    between atoms: _182  and  _183
REMARK   76  A    between atoms: _183  and  _184
REMARK   77  A    between atoms: _187  and  _189
REMARK   78  A    between atoms: _189  and  _190
REMARK   79  A    between atoms: _189  and  _192
REMARK   80  A    between atoms: _192  and  _193
REMARK   81  A    between atoms: _198  and  _199
REMARK   82  A    between atoms: _201  and  _203
REMARK   83  A    between atoms: _203  and  _204
REMARK   84  A    between atoms: _203  and  _206
REMARK   85  A    between atoms: _206  and  _207
REMARK   86  A    between atoms: _207  and  _208
REMARK   87  A    between atoms: _208  and  _209
REMARK   88  A    between atoms: _218  and  _220
REMARK   89  A    between atoms: _220  and  _221
REMARK   90  A    between atoms: _220  and  _223
REMARK   91  A    between atoms: _223  and  _224
REMARK   92  A    between atoms: _224  and  _225
REMARK   93  A    between atoms: _228  and  _230
REMARK   94  A    between atoms: _230  and  _231
REMARK   95  A    between atoms: _230  and  _233
REMARK   96  A    between atoms: _233  and  _234
REMARK   97  A    between atoms: _234  and  _235
REMARK   98  A    between atoms: _240  and  _242
REMARK   99  A    between atoms: _242  and  _243
REMARK  100  A    between atoms: _242  and  _245
REMARK  101  A    between atoms: _245  and  _246
REMARK  102  A    between atoms: _246  and  _247
REMARK  103  A    between atoms: _247  and  _248
REMARK  104  A    between atoms: _248  and  _249
REMARK  105  A    between atoms: _253  and  _255
REMARK  106  A    between atoms: _255  and  _256
REMARK  107  A    between atoms: _259  and  _261
REMARK  108  A    between atoms: _261  and  _262
REMARK  109  A    between atoms: _264  and  _266
REMARK  110  A    between atoms: _266  and  _267
REMARK  111  A    between atoms: _266  and  _269
REMARK  112  A    between atoms: _269  and  _270
REMARK  113  A    between atoms: _275  and  _277
REMARK  114  A    between atoms: _277  and  _278
REMARK  115  A    between atoms: _277  and  _280
REMARK  116  A    between atoms: _280  and  _281
REMARK  117  A    between atoms: _281  and  _282
REMARK  118  A    between atoms: _285  and  _287
REMARK  119  A    between atoms: _287  and  _288
REMARK  120  A    between atoms: _287  and  _290
REMARK  121  A    between atoms: _290  and  _291
REMARK  122  A    between atoms: _291  and  _292
REMARK  123  A    between atoms: _297  and  _299
REMARK  124  A    between atoms: _299  and  _300
REMARK  125  A    between atoms: _299  and  _302
REMARK  126  A    between atoms: _302  and  _303
REMARK  127  A    between atoms: _305  and  _307
REMARK  128  A    between atoms: _307  and  _308
REMARK  129  A    between atoms: _307  and  _310
REMARK  130  A    between atoms: _310  and  _311
REMARK  131  A    between atoms: _317  and  _319
REMARK  132  A    between atoms: _319  and  _320
REMARK  133  A    between atoms: _319  and  _322
REMARK  134  A    between atoms: _325  and  _327
REMARK  135  A    between atoms: _327  and  _328
REMARK  136  A    between atoms: _327  and  _330
REMARK  137  A    between atoms: _330  and  _331
REMARK  138  A    between atoms: _334  and  _336
REMARK  139  A    between atoms: _336  and  _337
REMARK  140  A    between atoms: _336  and  _339
REMARK  141  A    between atoms: _339  and  _340
REMARK  142  A    between atoms: _343  and  _345
REMARK  143  A    between atoms: _345  and  _346
REMARK  144  A    between atoms: _345  and  _348
REMARK  145  A    between atoms: _348  and  _349
REMARK  146  A    between atoms: _352  and  _354
REMARK  147  A    between atoms: _354  and  _355
REMARK  148  A    between atoms: _354  and  _357
REMARK  149  A    between atoms: _357  and  _358
REMARK  150  A    between atoms: _361  and  _363
REMARK  151  A    between atoms: _363  and  _364
REMARK  152  A    between atoms: _363  and  _366
REMARK  153  A    between atoms: _366  and  _367
REMARK  154  A    between atoms: _372  and  _373
REMARK  155  A    between atoms: _375  and  _377
REMARK  156  A    between atoms: _377  and  _378
REMARK  157  A    between atoms: _377  and  _380
REMARK  158  A    between atoms: _380  and  _381
REMARK  159  A    between atoms: _386  and  _387
REMARK  160  A    between atoms: _389  and  _391
REMARK  161  A    between atoms: _391  and  _392
REMARK  162  A    between atoms: _391  and  _394
REMARK  163  A    between atoms: _394  and  _395
REMARK  164  A    between atoms: _398  and  _400
REMARK  165  A    between atoms: _400  and  _401
REMARK  166  A    between atoms: _400  and  _403
REMARK  167  A    between atoms: _403  and  _404
REMARK  168  A    between atoms: _404  and  _405
REMARK  169  A    between atoms: _410  and  _412
REMARK  170  A    between atoms: _412  and  _413
REMARK  171  A    between atoms: _412  and  _415
REMARK  172  A    between atoms: _418  and  _420
REMARK  173  A    between atoms: _420  and  _421
REMARK  174  A    between atoms: _420  and  _423
REMARK  175  A    between atoms: _423  and  _424
REMARK  176  A    between atoms: _427  and  _429
REMARK  177  A    between atoms: _429  and  _430
REMARK  178  A    between atoms: _429  and  _432
REMARK  179  A    between atoms: _432  and  _433
REMARK  180  A    between atoms: _435  and  _437
REMARK  181  A    between atoms: _437  and  _438
REMARK  182  A    between atoms: _440  and  _442
REMARK  183  A    between atoms: _442  and  _443
REMARK  184  A    between atoms: _442  and  _445
REMARK  185  A    between atoms: _445  and  _446
REMARK  186  A    between atoms: _446  and  _744
REMARK  187  A    between atoms: _447  and  _449
REMARK  188  A    between atoms: _449  and  _450
REMARK  189  A    between atoms: _449  and  _452
REMARK  190  A    between atoms: _452  and  _453
REMARK  191  A    between atoms: _458  and  _459
REMARK  192  A    between atoms: _461  and  _463
REMARK  193  A    between atoms: _463  and  _464
REMARK  194  A    between atoms: _463  and  _466
REMARK  195  A    between atoms: _466  and  _467
REMARK  196  A    between atoms: _467  and  _468
REMARK  197  A    between atoms: _473  and  _475
REMARK  198  A    between atoms: _475  and  _476
REMARK  199  A    between atoms: _475  and  _478
REMARK  200  A    between atoms: _478  and  _479
REMARK  201  A    between atoms: _479  and  _480
REMARK  202  A    between atoms: _485  and  _487
REMARK  203  A    between atoms: _487  and  _488
REMARK  204  A    between atoms: _487  and  _490
REMARK  205  A    between atoms: _490  and  _491
REMARK  206  A    between atoms: _496  and  _497
REMARK  207  A    between atoms: _499  and  _501
REMARK  208  A    between atoms: _501  and  _502
REMARK  209  A    between atoms: _505  and  _507
REMARK  210  A    between atoms: _507  and  _508
REMARK  211  A    between atoms: _507  and  _510
REMARK  212  A    between atoms: _510  and  _511
REMARK  213  A    between atoms: _516  and  _517
REMARK  214  A    between atoms: _519  and  _521
REMARK  215  A    between atoms: _521  and  _522
REMARK  216  A    between atoms: _521  and  _524
REMARK  217  A    between atoms: _524  and  _525
REMARK  218  A    between atoms: _530  and  _531
REMARK  219  A    between atoms: _533  and  _535
REMARK  220  A    between atoms: _535  and  _536
REMARK  221  A    between atoms: _535  and  _538
REMARK  222  A    between atoms: _538  and  _539
REMARK  223  A    between atoms: _542  and  _544
REMARK  224  A    between atoms: _544  and  _545
REMARK  225  A    between atoms: _544  and  _547
REMARK  226  A    between atoms: _547  and  _548
REMARK  227  A    between atoms: _558  and  _560
REMARK  228  A    between atoms: _560  and  _561
REMARK  229  A    between atoms: _564  and  _566
REMARK  230  A    between atoms: _566  and  _567
REMARK  231  A    between atoms: _570  and  _572
REMARK  232  A    between atoms: _572  and  _573
REMARK  233  A    between atoms: _572  and  _575
REMARK  234  A    between atoms: _575  and  _576
REMARK  235  A    between atoms: _579  and  _581
REMARK  236  A    between atoms: _581  and  _582
REMARK  237  A    between atoms: _581  and  _584
REMARK  238  A    between atoms: _584  and  _585
REMARK  239  A    between atoms: _588  and  _590
REMARK  240  A    between atoms: _590  and  _591
REMARK  241  A    between atoms: _590  and  _593
REMARK  242  A    between atoms: _593  and  _594
REMARK  243  A    between atoms: _597  and  _599
REMARK  244  A    between atoms: _599  and  _600
REMARK  245  A    between atoms: _599  and  _602
REMARK  246  A    between atoms: _602  and  _603
REMARK  247  A    between atoms: _603  and  _604
REMARK  248  A    between atoms: _604  and  _605
REMARK  249  A    between atoms: _605  and  _606
REMARK  250  A    between atoms: _610  and  _612
REMARK  251  A    between atoms: _612  and  _613
REMARK  252  A    between atoms: _612  and  _615
REMARK  253  A    between atoms: _615  and  _616
REMARK  254  A    between atoms: _621  and  _623
REMARK  255  A    between atoms: _623  and  _624
REMARK  256  A    between atoms: _623  and  _626
REMARK  257  A    between atoms: _626  and  _627
REMARK  258  A    between atoms: _627  and  _628
REMARK  259  A    between atoms: _628  and  _629
REMARK  260  A    between atoms: _629  and  _630
REMARK  261  A    between atoms: _634  and  _636
REMARK  262  A    between atoms: _636  and  _637
REMARK  263  A    between atoms: _636  and  _639
REMARK  264  A    between atoms: _639  and  _640
REMARK  265  A    between atoms: _650  and  _652
REMARK  266  A    between atoms: _652  and  _653
REMARK  267  A    between atoms: _656  and  _658
REMARK  268  A    between atoms: _658  and  _659
REMARK  269  A    between atoms: _661  and  _663
REMARK  270  A    between atoms: _663  and  _664
REMARK  271  A    between atoms: _667  and  _669
REMARK  272  A    between atoms: _669  and  _670
REMARK  273  A    between atoms: _673  and  _675
REMARK  274  A    between atoms: _675  and  _676
REMARK  275  A    between atoms: _675  and  _678
REMARK  276  A    between atoms: _678  and  _679
REMARK  277  A    between atoms: _684  and  _685
REMARK  278  A    between atoms: _687  and  _689
REMARK  279  A    between atoms: _689  and  _690
REMARK  280  A    between atoms: _689  and  _692
REMARK  281  A    between atoms: _692  and  _693
REMARK  282  A    between atoms: _698  and  _699
REMARK  283  A    between atoms: _701  and  _703
REMARK  284  A    between atoms: _703  and  _704
REMARK  285  A    between atoms: _703  and  _706
REMARK  286  A    between atoms: _706  and  _707
REMARK  287  A    between atoms: _712  and  _713
REMARK  288  A    between atoms: _715  and  _717
REMARK  289  A    between atoms: _717  and  _718
REMARK  290  A    between atoms: _717  and  _720
REMARK  291  A    between atoms: _720  and  _721
REMARK  292  A    between atoms: _724  and  _726
REMARK  293  A    between atoms: _726  and  _727
REMARK  294  A    between atoms: _729  and  _731
REMARK  295  A    between atoms: _731  and  _732
REMARK  296  A    between atoms: _731  and  _734
REMARK  297  A    between atoms: _734  and  _735
REMARK  298  A    between atoms: _738  and  _740
REMARK  299  A    between atoms: _740  and  _741
REMARK  300  A    between atoms: _740  and  _743
REMARK  301  A    between atoms: _743  and  _744
REMARK  302  A    between atoms: _745  and  _747
REMARK  303  A    between atoms: _747  and  _748
REMARK  304  A    between atoms: _747  and  _750
REMARK  305  A    between atoms: _753  and  _755
REMARK  306  A    between atoms: _755  and  _756
REMARK  307  A    between atoms: _755  and  _758
REMARK  308  A    between atoms: _758  and  _759
REMARK  309  A    between atoms: _759  and  _760
REMARK  310  A    between atoms: _763  and  _765
REMARK  311  A    between atoms: _765  and  _766
REMARK  312  A    between atoms: _765  and  _768
REMARK  313  A    between atoms: _768  and  _769
REMARK  314  A    between atoms: _779  and  _781
REMARK  315  A    between atoms: _781  and  _782
REMARK  316  A    between atoms: _781  and  _784
REMARK  317  A    between atoms: _784  and  _785
REMARK  318  A    between atoms: _788  and  _790
REMARK  319  A    between atoms: _790  and  _791
REMARK  320  A    between atoms: _790  and  _793
REMARK  321  A    between atoms: _793  and  _794
REMARK  322  A    between atoms: _799  and  _800
REMARK                            x       y       z     vdW  Elec       q    Type
REMARK                         _______ _______ _______ _____ _____    ______ ____
ROOT
ATOM      1  O   HOH     1      47.371  63.310   8.883  0.00  0.00    +0.000 OA
ENDROOT
TORSDOF 0
REMARK  Name = ../refined-set-2016/1fzk/1fzk_pocket.pdb
REMARK  322 active torsions:
REMARK  status: ('A' for Active; 'I' for Inactive)
REMARK    1  A    between atoms: _1  and  _3
REMARK    2  A    between atoms: _3  and  _4
REMARK    3  A    between atoms: _3  and  _6
REMARK    4  A    between atoms: _6  and  _7
REMARK    5  A    between atoms: _10  and  _12
REMARK    6  A    between atoms: _12  and  _13
REMARK    7  A    between atoms: _12  and  _15
REMARK    8  A    between atoms: _15  and  _16
REMARK    9  A    between atoms: _16  and  _17
REMARK   10  A    between atoms: _17  and  _18
REMARK   11  A    between atoms: _27  and  _29
REMARK   12  A    between atoms: _29  and  _30
REMARK   13  A    between atoms: _29  and  _32
REMARK   14  A    between atoms: _32  and  _33
REMARK   15  A    between atoms: _38  and  _39
REMARK   16  A    between atoms: _41  and  _43
REMARK   17  A    between atoms: _43  and  _44
REMARK   18  A    between atoms: _43  and  _46
REMARK   19  A    between atoms: _46  and  _47
REMARK   20  A    between atoms: _53  and  _55
REMARK   21  A    between atoms: _55  and  _56
REMARK   22  A    between atoms: _55  and  _58
REMARK   23  A    between atoms: _61  and  _63
REMARK   24  A    between atoms: _63  and  _64
REMARK   25  A    between atoms: _63  and  _66
REMARK   26  A    between atoms: _66  and  _67
REMARK   27  A    between atoms: _70  and  _72
REMARK   28  A    between atoms: _72  and  _73
REMARK   29  A    between atoms: _72  and  _75
REMARK   30  A    between atoms: _75  and  _76
REMARK   31  A    between atoms: _81  and  _82
REMARK   32  A    between atoms: _84  and  _86
REMARK   33  A    between atoms: _86  and  _87
REMARK   34  A    between atoms: _86  and  _89
REMARK   35  A    between atoms: _89  and  _90
REMARK   36  A    between atoms: _90  and  _91
REMARK   37  A    between atoms: _93  and  _95
REMARK   38  A    between atoms: _95  and  _96
REMARK   39  A    between atoms: _95  and  _98
REMARK   40  A    between atoms: _98  and  _99
REMARK   41  A    between atoms: _99  and  _100
REMARK   42  A    between atoms: _103  and  _105
REMARK   43  A    between atoms: _105  and  _106
REMARK   44  A    between atoms: _105  and  _108
REMARK   45  A    between atoms: _111  and  _113
REMARK   46  A    between atoms: _113  and  _114
REMARK   47  A    between atoms: _116  and  _118
REMARK   48  A    between atoms: _118  and  _119
REMARK   49  A    between atoms: _118  and  _121
REMARK   50  A    between atoms: _124  and  _126
REMARK   51  A    between atoms: _126  and  _127
REMARK   52  A    between atoms: _126  and  _129
REMARK   53  A    between atoms: _129  and  _130
REMARK   54  A    between atoms: _136  and  _138
REMARK   55  A    between atoms: _138  and  _139
REMARK   56  A    between atoms: _138  and  _141
REMARK   57  A    between atoms: _144  and  _146
REMARK   58  A    between atoms: _146  and  _147
REMARK   59  A    between atoms: _146  and  _149
REMARK   60  A    between atoms: _149  and  _150
REMARK   61  A    between atoms: _155  and  _156
REMARK   62  A    between atoms: _158  and  _160
REMARK   63  A    between atoms: _160  and  _161
REMARK   64  A    between atoms: _160  and  _163
REMARK   65  A    between atoms: _163  and  _164
REMARK   66  A    between atoms: _164  and  _165
REMARK   67  A    between atoms: _167  and  _169
REMARK   68  A    between atoms: _169  and  _170
REMARK   69  A    between atoms: _169  and  _172
REMARK   70  A    between atoms: _172  and  _173
REMARK   71  A    between atoms: _173  and  _174
REMARK   72  A    between atoms: _177  and  _179
REMARK   73  A    between atoms: _179  and  _180
REMARK   74  A    between atoms: _179  and  _182
REMARK   75  A    between atoms: _182  and  _183
REMARK   76  A    between atoms: _183  and  _184
REMARK   77  A    between atoms: _187  and  _189
REMARK   78  A    between atoms: _189  and  _190
REMARK   79  A    between atoms: _189  and  _192
REMARK   80  A    between atoms: _192  and  _193
REMARK   81  A    between atoms: _198  and  _199
REMARK   82  A    between atoms: _201  and  _203
REMARK   83  A    between atoms: _203  and  _204
REMARK   84  A    between atoms: _203  and  _206
REMARK   85  A    between atoms: _206  and  _207
REMARK   86  A    between atoms: _207  and  _208
REMARK   87  A    between atoms: _208  and  _209
REMARK   88  A    between atoms: _218  and  _220
REMARK   89  A    between atoms: _220  and  _221
REMARK   90  A    between atoms: _220  and  _223
REMARK   91  A    between atoms: _223  and  _224
REMARK   92  A    between atoms: _224  and  _225
REMARK   93  A    between atoms: _228  and  _230
REMARK   94  A    between atoms: _230  and  _231
REMARK   95  A    between atoms: _230  and  _233
REMARK   96  A    between atoms: _233  and  _234
REMARK   97  A    between atoms: _234  and  _235
REMARK   98  A    between atoms: _240  and  _242
REMARK   99  A    between atoms: _242  and  _243
REMARK  100  A    between atoms: _242  and  _245
REMARK  101  A    between atoms: _245  and  _246
REMARK  102  A    between atoms: _246  and  _247
REMARK  103  A    between atoms: _247  and  _248
REMARK  104  A    between atoms: _248  and  _249
REMARK  105  A    between atoms: _253  and  _255
REMARK  106  A    between atoms: _255  and  _256
REMARK  107  A    between atoms: _259  and  _261
REMARK  108  A    between atoms: _261  and  _262
REMARK  109  A    between atoms: _264  and  _266
REMARK  110  A    between atoms: _266  and  _267
REMARK  111  A    between atoms: _266  and  _269
REMARK  112  A    between atoms: _269  and  _270
REMARK  113  A    between atoms: _275  and  _277
REMARK  114  A    between atoms: _277  and  _278
REMARK  115  A    between atoms: _277  and  _280
REMARK  116  A    between atoms: _280  and  _281
REMARK  117  A    between atoms: _281  and  _282
REMARK  118  A    between atoms: _285  and  _287
REMARK  119  A    between atoms: _287  and  _288
REMARK  120  A    between atoms: _287  and  _290
REMARK  121  A    between atoms: _290  and  _291
REMARK  122  A    between atoms: _291  and  _292
REMARK  123  A    between atoms: _297  and  _299
REMARK  124  A    between atoms: _299  and  _300
REMARK  125  A    between atoms: _299  and  _302
REMARK  126  A    between atoms: _302  and  _303
REMARK  127  A    between atoms: _305  and  _307
REMARK  128  A    between atoms: _307  and  _308
REMARK  129  A    between atoms: _307  and  _310
REMARK  130  A    between atoms: _310  and  _311
REMARK  131  A    between atoms: _317  and  _319
REMARK  132  A    between atoms: _319  and  _320
REMARK  133  A    between atoms: _319  and  _322
REMARK  134  A    between atoms: _325  and  _327
REMARK  135  A    between atoms: _327  and  _328
REMARK  136  A    between atoms: _327  and  _330
REMARK  137  A    between atoms: _330  and  _331
REMARK  138  A    between atoms: _334  and  _336
REMARK  139  A    between atoms: _336  and  _337
REMARK  140  A    between atoms: _336  and  _339
REMARK  141  A    between atoms: _339  and  _340
REMARK  142  A    between atoms: _343  and  _345
REMARK  143  A    between atoms: _345  and  _346
REMARK  144  A    between atoms: _345  and  _348
REMARK  145  A    between atoms: _348  and  _349
REMARK  146  A    between atoms: _352  and  _354
REMARK  147  A    between atoms: _354  and  _355
REMARK  148  A    between atoms: _354  and  _357
REMARK  149  A    between atoms: _357  and  _358
REMARK  150  A    between atoms: _361  and  _363
REMARK  151  A    between atoms: _363  and  _364
REMARK  152  A    between atoms: _363  and  _366
REMARK  153  A    between atoms: _366  and  _367
REMARK  154  A    between atoms: _372  and  _373
REMARK  155  A    between atoms: _375  and  _377
REMARK  156  A    between atoms: _377  and  _378
REMARK  157  A    between atoms: _377  and  _380
REMARK  158  A    between atoms: _380  and  _381
REMARK  159  A    between atoms: _386  and  _387
REMARK  160  A    between atoms: _389  and  _391
REMARK  161  A    between atoms: _391  and  _392
REMARK  162  A    between atoms: _391  and  _394
REMARK  163  A    between atoms: _394  and  _395
REMARK  164  A    between atoms: _398  and  _400
REMARK  165  A    between atoms: _400  and  _401
REMARK  166  A    between atoms: _400  and  _403
REMARK  167  A    between atoms: _403  and  _404
REMARK  168  A    between atoms: _404  and  _405
REMARK  169  A    between atoms: _410  and  _412
REMARK  170  A    between atoms: _412  and  _413
REMARK  171  A    between atoms: _412  and  _415
REMARK  172  A    between atoms: _418  and  _420
REMARK  173  A    between atoms: _420  and  _421
REMARK  174  A    between atoms: _420  and  _423
REMARK  175  A    between atoms: _423  and  _424
REMARK  176  A    between atoms: _427  and  _429
REMARK  177  A    between atoms: _429  and  _430
REMARK  178  A    between atoms: _429  and  _432
REMARK  179  A    between atoms: _432  and  _433
REMARK  180  A    between atoms: _435  and  _437
REMARK  181  A    between atoms: _437  and  _438
REMARK  182  A    between atoms: _440  and  _442
REMARK  183  A    between atoms: _442  and  _443
REMARK  184  A    between atoms: _442  and  _445
REMARK  185  A    between atoms: _445  and  _446
REMARK  186  A    between atoms: _446  and  _744
REMARK  187  A    between atoms: _447  and  _449
REMARK  188  A    between atoms: _449  and  _450
REMARK  189  A    between atoms: _449  and  _452
REMARK  190  A    between atoms: _452  and  _453
REMARK  191  A    between atoms: _458  and  _459
REMARK  192  A    between atoms: _461  and  _463
REMARK  193  A    between atoms: _463  and  _464
REMARK  194  A    between atoms: _463  and  _466
REMARK  195  A    between atoms: _466  and  _467
REMARK  196  A    between atoms: _467  and  _468
REMARK  197  A    between atoms: _473  and  _475
REMARK  198  A    between atoms: _475  and  _476
REMARK  199  A    between atoms: _475  and  _478
REMARK  200  A    between atoms: _478  and  _479
REMARK  201  A    between atoms: _479  and  _480
REMARK  202  A    between atoms: _485  and  _487
REMARK  203  A    between atoms: _487  and  _488
REMARK  204  A    between atoms: _487  and  _490
REMARK  205  A    between atoms: _490  and  _491
REMARK  206  A    between atoms: _496  and  _497
REMARK  207  A    between atoms: _499  and  _501
REMARK  208  A    between atoms: _501  and  _502
REMARK  209  A    between atoms: _505  and  _507
REMARK  210  A    between atoms: _507  and  _508
REMARK  211  A    between atoms: _507  and  _510
REMARK  212  A    between atoms: _510  and  _511
REMARK  213  A    between atoms: _516  and  _517
REMARK  214  A    between atoms: _519  and  _521
REMARK  215  A    between atoms: _521  and  _522
REMARK  216  A    between atoms: _521  and  _524
REMARK  217  A    between atoms: _524  and  _525
REMARK  218  A    between atoms: _530  and  _531
REMARK  219  A    between atoms: _533  and  _535
REMARK  220  A    between atoms: _535  and  _536
REMARK  221  A    between atoms: _535  and  _538
REMARK  222  A    between atoms: _538  and  _539
REMARK  223  A    between atoms: _542  and  _544
REMARK  224  A    between atoms: _544  and  _545
REMARK  225  A    between atoms: _544  and  _547
REMARK  226  A    between atoms: _547  and  _548
REMARK  227  A    between atoms: _558  and  _560
REMARK  228  A    between atoms: _560  and  _561
REMARK  229  A    between atoms: _564  and  _566
REMARK  230  A    between atoms: _566  and  _567
REMARK  231  A    between atoms: _570  and  _572
REMARK  232  A    between atoms: _572  and  _573
REMARK  233  A    between atoms: _572  and  _575
REMARK  234  A    between atoms: _575  and  _576
REMARK  235  A    between atoms: _579  and  _581
REMARK  236  A    between atoms: _581  and  _582
REMARK  237  A    between atoms: _581  and  _584
REMARK  238  A    between atoms: _584  and  _585
REMARK  239  A    between atoms: _588  and  _590
REMARK  240  A    between atoms: _590  and  _591
REMARK  241  A    between atoms: _590  and  _593
REMARK  242  A    between atoms: _593  and  _594
REMARK  243  A    between atoms: _597  and  _599
REMARK  244  A    between atoms: _599  and  _600
REMARK  245  A    between atoms: _599  and  _602
REMARK  246  A    between atoms: _602  and  _603
REMARK  247  A    between atoms: _603  and  _604
REMARK  248  A    between atoms: _604  and  _605
REMARK  249  A    between atoms: _605  and  _606
REMARK  250  A    between atoms: _610  and  _612
REMARK  251  A    between atoms: _612  and  _613
REMARK  252  A    between atoms: _612  and  _615
REMARK  253  A    between atoms: _615  and  _616
REMARK  254  A    between atoms: _621  and  _623
REMARK  255  A    between atoms: _623  and  _624
REMARK  256  A    between atoms: _623  and  _626
REMARK  257  A    between atoms: _626  and  _627
REMARK  258  A    between atoms: _627  and  _628
REMARK  259  A    between atoms: _628  and  _629
REMARK  260  A    between atoms: _629  and  _630
REMARK  261  A    between atoms: _634  and  _636
REMARK  262  A    between atoms: _636  and  _637
REMARK  263  A    between atoms: _636  and  _639
REMARK  264  A    between atoms: _639  and  _640
REMARK  265  A    between atoms: _650  and  _652
REMARK  266  A    between atoms: _652  and  _653
REMARK  267  A    between atoms: _656  and  _658
REMARK  268  A    between atoms: _658  and  _659
REMARK  269  A    between atoms: _661  and  _663
REMARK  270  A    between atoms: _663  and  _664
REMARK  271  A    between atoms: _667  and  _669
REMARK  272  A    between atoms: _669  and  _670
REMARK  273  A    between atoms: _673  and  _675
REMARK  274  A    between atoms: _675  and  _676
REMARK  275  A    between atoms: _675  and  _678
REMARK  276  A    between atoms: _678  and  _679
REMARK  277  A    between atoms: _684  and  _685
REMARK  278  A    between atoms: _687  and  _689
REMARK  279  A    between atoms: _689  and  _690
REMARK  280  A    between atoms: _689  and  _692
REMARK  281  A    between atoms: _692  and  _693
REMARK  282  A    between atoms: _698  and  _699
REMARK  283  A    between atoms: _701  and  _703
REMARK  284  A    between atoms: _703  and  _704
REMARK  285  A    between atoms: _703  and  _706
REMARK  286  A    between atoms: _706  and  _707
REMARK  287  A    between atoms: _712  and  _713
REMARK  288  A    between atoms: _715  and  _717
REMARK  289  A    between atoms: _717  and  _718
REMARK  290  A    between atoms: _717  and  _720
REMARK  291  A    between atoms: _720  and  _721
REMARK  292  A    between atoms: _724  and  _726
REMARK  293  A    between atoms: _726  and  _727
REMARK  294  A    between atoms: _729  and  _731
REMARK  295  A    between atoms: _731  and  _732
REMARK  296  A    between atoms: _731  and  _734
REMARK  297  A    between atoms: _734  and  _735
REMARK  298  A    between atoms: _738  and  _740
REMARK  299  A    between atoms: _740  and  _741
REMARK  300  A    between atoms: _740  and  _743
REMARK  301  A    between atoms: _743  and  _744
REMARK  302  A    between atoms: _745  and  _747
REMARK  303  A    between atoms: _747  and  _748
REMARK  304  A    between atoms: _747  and  _750
REMARK  305  A    between atoms: _753  and  _755
REMARK  306  A    between atoms: _755  and  _756
REMARK  307  A    between atoms: _755  and  _758
REMARK  308  A    between atoms: _758  and  _759
REMARK  309  A    between atoms: _759  and  _760
REMARK  310  A    between atoms: _763  and  _765
REMARK  311  A    between atoms: _765  and  _766
REMARK  312  A    between atoms: _765  and  _768
REMARK  313  A    between atoms: _768  and  _769
REMARK  314  A    between atoms: _779  and  _781
REMARK  315  A    between atoms: _781  and  _782
REMARK  316  A    between atoms: _781  and  _784
REMARK  317  A    between atoms: _784  and  _785
REMARK  318  A    between atoms: _788  and  _790
REMARK  319  A    between atoms: _790  and  _791
REMARK  320  A    between atoms: _790  and  _793
REMARK  321  A    between atoms: _793  and  _794
REMARK  322  A    between atoms: _799  and  _800
REMARK                            x       y       z     vdW  Elec       q    Type
REMARK                         _______ _______ _______ _____ _____    ______ ____
ROOT
ATOM      1  O   HOH     1      48.012  63.542  11.409  0.00  0.00    +0.000 OA
ENDROOT
TORSDOF 0
REMARK  Name = ../refined-set-2016/1fzk/1fzk_pocket.pdb
REMARK  322 active torsions:
REMARK  status: ('A' for Active; 'I' for Inactive)
REMARK    1  A    between atoms: _1  and  _3
REMARK    2  A    between atoms: _3  and  _4
REMARK    3  A    between atoms: _3  and  _6
REMARK    4  A    between atoms: _6  and  _7
REMARK    5  A    between atoms: _10  and  _12
REMARK    6  A    between atoms: _12  and  _13
REMARK    7  A    between atoms: _12  and  _15
REMARK    8  A    between atoms: _15  and  _16
REMARK    9  A    between atoms: _16  and  _17
REMARK   10  A    between atoms: _17  and  _18
REMARK   11  A    between atoms: _27  and  _29
REMARK   12  A    between atoms: _29  and  _30
REMARK   13  A    between atoms: _29  and  _32
REMARK   14  A    between atoms: _32  and  _33
REMARK   15  A    between atoms: _38  and  _39
REMARK   16  A    between atoms: _41  and  _43
REMARK   17  A    between atoms: _43  and  _44
REMARK   18  A    between atoms: _43  and  _46
REMARK   19  A    between atoms: _46  and  _47
REMARK   20  A    between atoms: _53  and  _55
REMARK   21  A    between atoms: _55  and  _56
REMARK   22  A    between atoms: _55  and  _58
REMARK   23  A    between atoms: _61  and  _63
REMARK   24  A    between atoms: _63  and  _64
REMARK   25  A    between atoms: _63  and  _66
REMARK   26  A    between atoms: _66  and  _67
REMARK   27  A    between atoms: _70  and  _72
REMARK   28  A    between atoms: _72  and  _73
REMARK   29  A    between atoms: _72  and  _75
REMARK   30  A    between atoms: _75  and  _76
REMARK   31  A    between atoms: _81  and  _82
REMARK   32  A    between atoms: _84  and  _86
REMARK   33  A    between atoms: _86  and  _87
REMARK   34  A    between atoms: _86  and  _89
REMARK   35  A    between atoms: _89  and  _90
REMARK   36  A    between atoms: _90  and  _91
REMARK   37  A    between atoms: _93  and  _95
REMARK   38  A    between atoms: _95  and  _96
REMARK   39  A    between atoms: _95  and  _98
REMARK   40  A    between atoms: _98  and  _99
REMARK   41  A    between atoms: _99  and  _100
REMARK   42  A    between atoms: _103  and  _105
REMARK   43  A    between atoms: _105  and  _106
REMARK   44  A    between atoms: _105  and  _108
REMARK   45  A    between atoms: _111  and  _113
REMARK   46  A    between atoms: _113  and  _114
REMARK   47  A    between atoms: _116  and  _118
REMARK   48  A    between atoms: _118  and  _119
REMARK   49  A    between atoms: _118  and  _121
REMARK   50  A    between atoms: _124  and  _126
REMARK   51  A    between atoms: _126  and  _127
REMARK   52  A    between atoms: _126  and  _129
REMARK   53  A    between atoms: _129  and  _130
REMARK   54  A    between atoms: _136  and  _138
REMARK   55  A    between atoms: _138  and  _139
REMARK   56  A    between atoms: _138  and  _141
REMARK   57  A    between atoms: _144  and  _146
REMARK   58  A    between atoms: _146  and  _147
REMARK   59  A    between atoms: _146  and  _149
REMARK   60  A    between atoms: _149  and  _150
REMARK   61  A    between atoms: _155  and  _156
REMARK   62  A    between atoms: _158  and  _160
REMARK   63  A    between atoms: _160  and  _161
REMARK   64  A    between atoms: _160  and  _163
REMARK   65  A    between atoms: _163  and  _164
REMARK   66  A    between atoms: _164  and  _165
REMARK   67  A    between atoms: _167  and  _169
REMARK   68  A    between atoms: _169  and  _170
REMARK   69  A    between atoms: _169  and  _172
REMARK   70  A    between atoms: _172  and  _173
REMARK   71  A    between atoms: _173  and  _174
REMARK   72  A    between atoms: _177  and  _179
REMARK   73  A    between atoms: _179  and  _180
REMARK   74  A    between atoms: _179  and  _182
REMARK   75  A    between atoms: _182  and  _183
REMARK   76  A    between atoms: _183  and  _184
REMARK   77  A    between atoms: _187  and  _189
REMARK   78  A    between atoms: _189  and  _190
REMARK   79  A    between atoms: _189  and  _192
REMARK   80  A    between atoms: _192  and  _193
REMARK   81  A    between atoms: _198  and  _199
REMARK   82  A    between atoms: _201  and  _203
REMARK   83  A    between atoms: _203  and  _204
REMARK   84  A    between atoms: _203  and  _206
REMARK   85  A    between atoms: _206  and  _207
REMARK   86  A    between atoms: _207  and  _208
REMARK   87  A    between atoms: _208  and  _209
REMARK   88  A    between atoms: _218  and  _220
REMARK   89  A    between atoms: _220  and  _221
REMARK   90  A    between atoms: _220  and  _223
REMARK   91  A    between atoms: _223  and  _224
REMARK   92  A    between atoms: _224  and  _225
REMARK   93  A    between atoms: _228  and  _230
REMARK   94  A    between atoms: _230  and  _231
REMARK   95  A    between atoms: _230  and  _233
REMARK   96  A    between atoms: _233  and  _234
REMARK   97  A    between atoms: _234  and  _235
REMARK   98  A    between atoms: _240  and  _242
REMARK   99  A    between atoms: _242  and  _243
REMARK  100  A    between atoms: _242  and  _245
REMARK  101  A    between atoms: _245  and  _246
REMARK  102  A    between atoms: _246  and  _247
REMARK  103  A    between atoms: _247  and  _248
REMARK  104  A    between atoms: _248  and  _249
REMARK  105  A    between atoms: _253  and  _255
REMARK  106  A    between atoms: _255  and  _256
REMARK  107  A    between atoms: _259  and  _261
REMARK  108  A    between atoms: _261  and  _262
REMARK  109  A    between atoms: _264  and  _266
REMARK  110  A    between atoms: _266  and  _267
REMARK  111  A    between atoms: _266  and  _269
REMARK  112  A    between atoms: _269  and  _270
REMARK  113  A    between atoms: _275  and  _277
REMARK  114  A    between atoms: _277  and  _278
REMARK  115  A    between atoms: _277  and  _280
REMARK  116  A    between atoms: _280  and  _281
REMARK  117  A    between atoms: _281  and  _282
REMARK  118  A    between atoms: _285  and  _287
REMARK  119  A    between atoms: _287  and  _288
REMARK  120  A    between atoms: _287  and  _290
REMARK  121  A    between atoms: _290  and  _291
REMARK  122  A    between atoms: _291  and  _292
REMARK  123  A    between atoms: _297  and  _299
REMARK  124  A    between atoms: _299  and  _300
REMARK  125  A    between atoms: _299  and  _302
REMARK  126  A    between atoms: _302  and  _303
REMARK  127  A    between atoms: _305  and  _307
REMARK  128  A    between atoms: _307  and  _308
REMARK  129  A    between atoms: _307  and  _310
REMARK  130  A    between atoms: _310  and  _311
REMARK  131  A    between atoms: _317  and  _319
REMARK  132  A    between atoms: _319  and  _320
REMARK  133  A    between atoms: _319  and  _322
REMARK  134  A    between atoms: _325  and  _327
REMARK  135  A    between atoms: _327  and  _328
REMARK  136  A    between atoms: _327  and  _330
REMARK  137  A    between atoms: _330  and  _331
REMARK  138  A    between atoms: _334  and  _336
REMARK  139  A    between atoms: _336  and  _337
REMARK  140  A    between atoms: _336  and  _339
REMARK  141  A    between atoms: _339  and  _340
REMARK  142  A    between atoms: _343  and  _345
REMARK  143  A    between atoms: _345  and  _346
REMARK  144  A    between atoms: _345  and  _348
REMARK  145  A    between atoms: _348  and  _349
REMARK  146  A    between atoms: _352  and  _354
REMARK  147  A    between atoms: _354  and  _355
REMARK  148  A    between atoms: _354  and  _357
REMARK  149  A    between atoms: _357  and  _358
REMARK  150  A    between atoms: _361  and  _363
REMARK  151  A    between atoms: _363  and  _364
REMARK  152  A    between atoms: _363  and  _366
REMARK  153  A    between atoms: _366  and  _367
REMARK  154  A    between atoms: _372  and  _373
REMARK  155  A    between atoms: _375  and  _377
REMARK  156  A    between atoms: _377  and  _378
REMARK  157  A    between atoms: _377  and  _380
REMARK  158  A    between atoms: _380  and  _381
REMARK  159  A    between atoms: _386  and  _387
REMARK  160  A    between atoms: _389  and  _391
REMARK  161  A    between atoms: _391  and  _392
REMARK  162  A    between atoms: _391  and  _394
REMARK  163  A    between atoms: _394  and  _395
REMARK  164  A    between atoms: _398  and  _400
REMARK  165  A    between atoms: _400  and  _401
REMARK  166  A    between atoms: _400  and  _403
REMARK  167  A    between atoms: _403  and  _404
REMARK  168  A    between atoms: _404  and  _405
REMARK  169  A    between atoms: _410  and  _412
REMARK  170  A    between atoms: _412  and  _413
REMARK  171  A    between atoms: _412  and  _415
REMARK  172  A    between atoms: _418  and  _420
REMARK  173  A    between atoms: _420  and  _421
REMARK  174  A    between atoms: _420  and  _423
REMARK  175  A    between atoms: _423  and  _424
REMARK  176  A    between atoms: _427  and  _429
REMARK  177  A    between atoms: _429  and  _430
REMARK  178  A    between atoms: _429  and  _432
REMARK  179  A    between atoms: _432  and  _433
REMARK  180  A    between atoms: _435  and  _437
REMARK  181  A    between atoms: _437  and  _438
REMARK  182  A    between atoms: _440  and  _442
REMARK  183  A    between atoms: _442  and  _443
REMARK  184  A    between atoms: _442  and  _445
REMARK  185  A    between atoms: _445  and  _446
REMARK  186  A    between atoms: _446  and  _744
REMARK  187  A    between atoms: _447  and  _449
REMARK  188  A    between atoms: _449  and  _450
REMARK  189  A    between atoms: _449  and  _452
REMARK  190  A    between atoms: _452  and  _453
REMARK  191  A    between atoms: _458  and  _459
REMARK  192  A    between atoms: _461  and  _463
REMARK  193  A    between atoms: _463  and  _464
REMARK  194  A    between atoms: _463  and  _466
REMARK  195  A    between atoms: _466  and  _467
REMARK  196  A    between atoms: _467  and  _468
REMARK  197  A    between atoms: _473  and  _475
REMARK  198  A    between atoms: _475  and  _476
REMARK  199  A    between atoms: _475  and  _478
REMARK  200  A    between atoms: _478  and  _479
REMARK  201  A    between atoms: _479  and  _480
REMARK  202  A    between atoms: _485  and  _487
REMARK  203  A    between atoms: _487  and  _488
REMARK  204  A    between atoms: _487  and  _490
REMARK  205  A    between atoms: _490  and  _491
REMARK  206  A    between atoms: _496  and  _497
REMARK  207  A    between atoms: _499  and  _501
REMARK  208  A    between atoms: _501  and  _502
REMARK  209  A    between atoms: _505  and  _507
REMARK  210  A    between atoms: _507  and  _508
REMARK  211  A    between atoms: _507  and  _510
REMARK  212  A    between atoms: _510  and  _511
REMARK  213  A    between atoms: _516  and  _517
REMARK  214  A    between atoms: _519  and  _521
REMARK  215  A    between atoms: _521  and  _522
REMARK  216  A    between atoms: _521  and  _524
REMARK  217  A    between atoms: _524  and  _525
REMARK  218  A    between atoms: _530  and  _531
REMARK  219  A    between atoms: _533  and  _535
REMARK  220  A    between atoms: _535  and  _536
REMARK  221  A    between atoms: _535  and  _538
REMARK  222  A    between atoms: _538  and  _539
REMARK  223  A    between atoms: _542  and  _544
REMARK  224  A    between atoms: _544  and  _545
REMARK  225  A    between atoms: _544  and  _547
REMARK  226  A    between atoms: _547  and  _548
REMARK  227  A    between atoms: _558  and  _560
REMARK  228  A    between atoms: _560  and  _561
REMARK  229  A    between atoms: _564  and  _566
REMARK  230  A    between atoms: _566  and  _567
REMARK  231  A    between atoms: _570  and  _572
REMARK  232  A    between atoms: _572  and  _573
REMARK  233  A    between atoms: _572  and  _575
REMARK  234  A    between atoms: _575  and  _576
REMARK  235  A    between atoms: _579  and  _581
REMARK  236  A    between atoms: _581  and  _582
REMARK  237  A    between atoms: _581  and  _584
REMARK  238  A    between atoms: _584  and  _585
REMARK  239  A    between atoms: _588  and  _590
REMARK  240  A    between atoms: _590  and  _591
REMARK  241  A    between atoms: _590  and  _593
REMARK  242  A    between atoms: _593  and  _594
REMARK  243  A    between atoms: _597  and  _599
REMARK  244  A    between atoms: _599  and  _600
REMARK  245  A    between atoms: _599  and  _602
REMARK  246  A    between atoms: _602  and  _603
REMARK  247  A    between atoms: _603  and  _604
REMARK  248  A    between atoms: _604  and  _605
REMARK  249  A    between atoms: _605  and  _606
REMARK  250  A    between atoms: _610  and  _612
REMARK  251  A    between atoms: _612  and  _613
REMARK  252  A    between atoms: _612  and  _615
REMARK  253  A    between atoms: _615  and  _616
REMARK  254  A    between atoms: _621  and  _623
REMARK  255  A    between atoms: _623  and  _624
REMARK  256  A    between atoms: _623  and  _626
REMARK  257  A    between atoms: _626  and  _627
REMARK  258  A    between atoms: _627  and  _628
REMARK  259  A    between atoms: _628  and  _629
REMARK  260  A    between atoms: _629  and  _630
REMARK  261  A    between atoms: _634  and  _636
REMARK  262  A    between atoms: _636  and  _637
REMARK  263  A    between atoms: _636  and  _639
REMARK  264  A    between atoms: _639  and  _640
REMARK  265  A    between atoms: _650  and  _652
REMARK  266  A    between atoms: _652  and  _653
REMARK  267  A    between atoms: _656  and  _658
REMARK  268  A    between atoms: _658  and  _659
REMARK  269  A    between atoms: _661  and  _663
REMARK  270  A    between atoms: _663  and  _664
REMARK  271  A    between atoms: _667  and  _669
REMARK  272  A    between atoms: _669  and  _670
REMARK  273  A    between atoms: _673  and  _675
REMARK  274  A    between atoms: _675  and  _676
REMARK  275  A    between atoms: _675  and  _678
REMARK  276  A    between atoms: _678  and  _679
REMARK  277  A    between atoms: _684  and  _685
REMARK  278  A    between atoms: _687  and  _689
REMARK  279  A    between atoms: _689  and  _690
REMARK  280  A    between atoms: _689  and  _692
REMARK  281  A    between atoms: _692  and  _693
REMARK  282  A    between atoms: _698  and  _699
REMARK  283  A    between atoms: _701  and  _703
REMARK  284  A    between atoms: _703  and  _704
REMARK  285  A    between atoms: _703  and  _706
REMARK  286  A    between atoms: _706  and  _707
REMARK  287  A    between atoms: _712  and  _713
REMARK  288  A    between atoms: _715  and  _717
REMARK  289  A    between atoms: _717  and  _718
REMARK  290  A    between atoms: _717  and  _720
REMARK  291  A    between atoms: _720  and  _721
REMARK  292  A    between atoms: _724  and  _726
REMARK  293  A    between atoms: _726  and  _727
REMARK  294  A    between atoms: _729  and  _731
REMARK  295  A    between atoms: _731  and  _732
REMARK  296  A    between atoms: _731  and  _734
REMARK  297  A    between atoms: _734  and  _735
REMARK  298  A    between atoms: _738  and  _740
REMARK  299  A    between atoms: _740  and  _741
REMARK  300  A    between atoms: _740  and  _743
REMARK  301  A    between atoms: _743  and  _744
REMARK  302  A    between atoms: _745  and  _747
REMARK  303  A    between atoms: _747  and  _748
REMARK  304  A    between atoms: _747  and  _750
REMARK  305  A    between atoms: _753  and  _755
REMARK  306  A    between atoms: _755  and  _756
REMARK  307  A    between atoms: _755  and  _758
REMARK  308  A    between atoms: _758  and  _759
REMARK  309  A    between atoms: _759  and  _760
REMARK  310  A    between atoms: _763  and  _765
REMARK  311  A    between atoms: _765  and  _766
REMARK  312  A    between atoms: _765  and  _768
REMARK  313  A    between atoms: _768  and  _769
REMARK  314  A    between atoms: _779  and  _781
REMARK  315  A    between atoms: _781  and  _782
REMARK  316  A    between atoms: _781  and  _784
REMARK  317  A    between atoms: _784  and  _785
REMARK  318  A    between atoms: _788  and  _790
REMARK  319  A    between atoms: _790  and  _791
REMARK  320  A    between atoms: _790  and  _793
REMARK  321  A    between atoms: _793  and  _794
REMARK  322  A    between atoms: _799  and  _800
REMARK                            x       y       z     vdW  Elec       q    Type
REMARK                         _______ _______ _______ _____ _____    ______ ____
ROOT
ATOM      1  O   HOH     1      51.360  64.718   5.279  0.00  0.00    +0.000 OA
ENDROOT
TORSDOF 0
REMARK  Name = ../refined-set-2016/1fzk/1fzk_pocket.pdb
REMARK  322 active torsions:
REMARK  status: ('A' for Active; 'I' for Inactive)
REMARK    1  A    between atoms: _1  and  _3
REMARK    2  A    between atoms: _3  and  _4
REMARK    3  A    between atoms: _3  and  _6
REMARK    4  A    between atoms: _6  and  _7
REMARK    5  A    between atoms: _10  and  _12
REMARK    6  A    between atoms: _12  and  _13
REMARK    7  A    between atoms: _12  and  _15
REMARK    8  A    between atoms: _15  and  _16
REMARK    9  A    between atoms: _16  and  _17
REMARK   10  A    between atoms: _17  and  _18
REMARK   11  A    between atoms: _27  and  _29
REMARK   12  A    between atoms: _29  and  _30
REMARK   13  A    between atoms: _29  and  _32
REMARK   14  A    between atoms: _32  and  _33
REMARK   15  A    between atoms: _38  and  _39
REMARK   16  A    between atoms: _41  and  _43
REMARK   17  A    between atoms: _43  and  _44
REMARK   18  A    between atoms: _43  and  _46
REMARK   19  A    between atoms: _46  and  _47
REMARK   20  A    between atoms: _53  and  _55
REMARK   21  A    between atoms: _55  and  _56
REMARK   22  A    between atoms: _55  and  _58
REMARK   23  A    between atoms: _61  and  _63
REMARK   24  A    between atoms: _63  and  _64
REMARK   25  A    between atoms: _63  and  _66
REMARK   26  A    between atoms: _66  and  _67
REMARK   27  A    between atoms: _70  and  _72
REMARK   28  A    between atoms: _72  and  _73
REMARK   29  A    between atoms: _72  and  _75
REMARK   30  A    between atoms: _75  and  _76
REMARK   31  A    between atoms: _81  and  _82
REMARK   32  A    between atoms: _84  and  _86
REMARK   33  A    between atoms: _86  and  _87
REMARK   34  A    between atoms: _86  and  _89
REMARK   35  A    between atoms: _89  and  _90
REMARK   36  A    between atoms: _90  and  _91
REMARK   37  A    between atoms: _93  and  _95
REMARK   38  A    between atoms: _95  and  _96
REMARK   39  A    between atoms: _95  and  _98
REMARK   40  A    between atoms: _98  and  _99
REMARK   41  A    between atoms: _99  and  _100
REMARK   42  A    between atoms: _103  and  _105
REMARK   43  A    between atoms: _105  and  _106
REMARK   44  A    between atoms: _105  and  _108
REMARK   45  A    between atoms: _111  and  _113
REMARK   46  A    between atoms: _113  and  _114
REMARK   47  A    between atoms: _116  and  _118
REMARK   48  A    between atoms: _118  and  _119
REMARK   49  A    between atoms: _118  and  _121
REMARK   50  A    between atoms: _124  and  _126
REMARK   51  A    between atoms: _126  and  _127
REMARK   52  A    between atoms: _126  and  _129
REMARK   53  A    between atoms: _129  and  _130
REMARK   54  A    between atoms: _136  and  _138
REMARK   55  A    between atoms: _138  and  _139
REMARK   56  A    between atoms: _138  and  _141
REMARK   57  A    between atoms: _144  and  _146
REMARK   58  A    between atoms: _146  and  _147
REMARK   59  A    between atoms: _146  and  _149
REMARK   60  A    between atoms: _149  and  _150
REMARK   61  A    between atoms: _155  and  _156
REMARK   62  A    between atoms: _158  and  _160
REMARK   63  A    between atoms: _160  and  _161
REMARK   64  A    between atoms: _160  and  _163
REMARK   65  A    between atoms: _163  and  _164
REMARK   66  A    between atoms: _164  and  _165
REMARK   67  A    between atoms: _167  and  _169
REMARK   68  A    between atoms: _169  and  _170
REMARK   69  A    between atoms: _169  and  _172
REMARK   70  A    between atoms: _172  and  _173
REMARK   71  A    between atoms: _173  and  _174
REMARK   72  A    between atoms: _177  and  _179
REMARK   73  A    between atoms: _179  and  _180
REMARK   74  A    between atoms: _179  and  _182
REMARK   75  A    between atoms: _182  and  _183
REMARK   76  A    between atoms: _183  and  _184
REMARK   77  A    between atoms: _187  and  _189
REMARK   78  A    between atoms: _189  and  _190
REMARK   79  A    between atoms: _189  and  _192
REMARK   80  A    between atoms: _192  and  _193
REMARK   81  A    between atoms: _198  and  _199
REMARK   82  A    between atoms: _201  and  _203
REMARK   83  A    between atoms: _203  and  _204
REMARK   84  A    between atoms: _203  and  _206
REMARK   85  A    between atoms: _206  and  _207
REMARK   86  A    between atoms: _207  and  _208
REMARK   87  A    between atoms: _208  and  _209
REMARK   88  A    between atoms: _218  and  _220
REMARK   89  A    between atoms: _220  and  _221
REMARK   90  A    between atoms: _220  and  _223
REMARK   91  A    between atoms: _223  and  _224
REMARK   92  A    between atoms: _224  and  _225
REMARK   93  A    between atoms: _228  and  _230
REMARK   94  A    between atoms: _230  and  _231
REMARK   95  A    between atoms: _230  and  _233
REMARK   96  A    between atoms: _233  and  _234
REMARK   97  A    between atoms: _234  and  _235
REMARK   98  A    between atoms: _240  and  _242
REMARK   99  A    between atoms: _242  and  _243
REMARK  100  A    between atoms: _242  and  _245
REMARK  101  A    between atoms: _245  and  _246
REMARK  102  A    between atoms: _246  and  _247
REMARK  103  A    between atoms: _247  and  _248
REMARK  104  A    between atoms: _248  and  _249
REMARK  105  A    between atoms: _253  and  _255
REMARK  106  A    between atoms: _255  and  _256
REMARK  107  A    between atoms: _259  and  _261
REMARK  108  A    between atoms: _261  and  _262
REMARK  109  A    between atoms: _264  and  _266
REMARK  110  A    between atoms: _266  and  _267
REMARK  111  A    between atoms: _266  and  _269
REMARK  112  A    between atoms: _269  and  _270
REMARK  113  A    between atoms: _275  and  _277
REMARK  114  A    between atoms: _277  and  _278
REMARK  115  A    between atoms: _277  and  _280
REMARK  116  A    between atoms: _280  and  _281
REMARK  117  A    between atoms: _281  and  _282
REMARK  118  A    between atoms: _285  and  _287
REMARK  119  A    between atoms: _287  and  _288
REMARK  120  A    between atoms: _287  and  _290
REMARK  121  A    between atoms: _290  and  _291
REMARK  122  A    between atoms: _291  and  _292
REMARK  123  A    between atoms: _297  and  _299
REMARK  124  A    between atoms: _299  and  _300
REMARK  125  A    between atoms: _299  and  _302
REMARK  126  A    between atoms: _302  and  _303
REMARK  127  A    between atoms: _305  and  _307
REMARK  128  A    between atoms: _307  and  _308
REMARK  129  A    between atoms: _307  and  _310
REMARK  130  A    between atoms: _310  and  _311
REMARK  131  A    between atoms: _317  and  _319
REMARK  132  A    between atoms: _319  and  _320
REMARK  133  A    between atoms: _319  and  _322
REMARK  134  A    between atoms: _325  and  _327
REMARK  135  A    between atoms: _327  and  _328
REMARK  136  A    between atoms: _327  and  _330
REMARK  137  A    between atoms: _330  and  _331
REMARK  138  A    between atoms: _334  and  _336
REMARK  139  A    between atoms: _336  and  _337
REMARK  140  A    between atoms: _336  and  _339
REMARK  141  A    between atoms: _339  and  _340
REMARK  142  A    between atoms: _343  and  _345
REMARK  143  A    between atoms: _345  and  _346
REMARK  144  A    between atoms: _345  and  _348
REMARK  145  A    between atoms: _348  and  _349
REMARK  146  A    between atoms: _352  and  _354
REMARK  147  A    between atoms: _354  and  _355
REMARK  148  A    between atoms: _354  and  _357
REMARK  149  A    between atoms: _357  and  _358
REMARK  150  A    between atoms: _361  and  _363
REMARK  151  A    between atoms: _363  and  _364
REMARK  152  A    between atoms: _363  and  _366
REMARK  153  A    between atoms: _366  and  _367
REMARK  154  A    between atoms: _372  and  _373
REMARK  155  A    between atoms: _375  and  _377
REMARK  156  A    between atoms: _377  and  _378
REMARK  157  A    between atoms: _377  and  _380
REMARK  158  A    between atoms: _380  and  _381
REMARK  159  A    between atoms: _386  and  _387
REMARK  160  A    between atoms: _389  and  _391
REMARK  161  A    between atoms: _391  and  _392
REMARK  162  A    between atoms: _391  and  _394
REMARK  163  A    between atoms: _394  and  _395
REMARK  164  A    between atoms: _398  and  _400
REMARK  165  A    between atoms: _400  and  _401
REMARK  166  A    between atoms: _400  and  _403
REMARK  167  A    between atoms: _403  and  _404
REMARK  168  A    between atoms: _404  and  _405
REMARK  169  A    between atoms: _410  and  _412
REMARK  170  A    between atoms: _412  and  _413
REMARK  171  A    between atoms: _412  and  _415
REMARK  172  A    between atoms: _418  and  _420
REMARK  173  A    between atoms: _420  and  _421
REMARK  174  A    between atoms: _420  and  _423
REMARK  175  A    between atoms: _423  and  _424
REMARK  176  A    between atoms: _427  and  _429
REMARK  177  A    between atoms: _429  and  _430
REMARK  178  A    between atoms: _429  and  _432
REMARK  179  A    between atoms: _432  and  _433
REMARK  180  A    between atoms: _435  and  _437
REMARK  181  A    between atoms: _437  and  _438
REMARK  182  A    between atoms: _440  and  _442
REMARK  183  A    between atoms: _442  and  _443
REMARK  184  A    between atoms: _442  and  _445
REMARK  185  A    between atoms: _445  and  _446
REMARK  186  A    between atoms: _446  and  _744
REMARK  187  A    between atoms: _447  and  _449
REMARK  188  A    between atoms: _449  and  _450
REMARK  189  A    between atoms: _449  and  _452
REMARK  190  A    between atoms: _452  and  _453
REMARK  191  A    between atoms: _458  and  _459
REMARK  192  A    between atoms: _461  and  _463
REMARK  193  A    between atoms: _463  and  _464
REMARK  194  A    between atoms: _463  and  _466
REMARK  195  A    between atoms: _466  and  _467
REMARK  196  A    between atoms: _467  and  _468
REMARK  197  A    between atoms: _473  and  _475
REMARK  198  A    between atoms: _475  and  _476
REMARK  199  A    between atoms: _475  and  _478
REMARK  200  A    between atoms: _478  and  _479
REMARK  201  A    between atoms: _479  and  _480
REMARK  202  A    between atoms: _485  and  _487
REMARK  203  A    between atoms: _487  and  _488
REMARK  204  A    between atoms: _487  and  _490
REMARK  205  A    between atoms: _490  and  _491
REMARK  206  A    between atoms: _496  and  _497
REMARK  207  A    between atoms: _499  and  _501
REMARK  208  A    between atoms: _501  and  _502
REMARK  209  A    between atoms: _505  and  _507
REMARK  210  A    between atoms: _507  and  _508
REMARK  211  A    between atoms: _507  and  _510
REMARK  212  A    between atoms: _510  and  _511
REMARK  213  A    between atoms: _516  and  _517
REMARK  214  A    between atoms: _519  and  _521
REMARK  215  A    between atoms: _521  and  _522
REMARK  216  A    between atoms: _521  and  _524
REMARK  217  A    between atoms: _524  and  _525
REMARK  218  A    between atoms: _530  and  _531
REMARK  219  A    between atoms: _533  and  _535
REMARK  220  A    between atoms: _535  and  _536
REMARK  221  A    between atoms: _535  and  _538
REMARK  222  A    between atoms: _538  and  _539
REMARK  223  A    between atoms: _542  and  _544
REMARK  224  A    between atoms: _544  and  _545
REMARK  225  A    between atoms: _544  and  _547
REMARK  226  A    between atoms: _547  and  _548
REMARK  227  A    between atoms: _558  and  _560
REMARK  228  A    between atoms: _560  and  _561
REMARK  229  A    between atoms: _564  and  _566
REMARK  230  A    between atoms: _566  and  _567
REMARK  231  A    between atoms: _570  and  _572
REMARK  232  A    between atoms: _572  and  _573
REMARK  233  A    between atoms: _572  and  _575
REMARK  234  A    between atoms: _575  and  _576
REMARK  235  A    between atoms: _579  and  _581
REMARK  236  A    between atoms: _581  and  _582
REMARK  237  A    between atoms: _581  and  _584
REMARK  238  A    between atoms: _584  and  _585
REMARK  239  A    between atoms: _588  and  _590
REMARK  240  A    between atoms: _590  and  _591
REMARK  241  A    between atoms: _590  and  _593
REMARK  242  A    between atoms: _593  and  _594
REMARK  243  A    between atoms: _597  and  _599
REMARK  244  A    between atoms: _599  and  _600
REMARK  245  A    between atoms: _599  and  _602
REMARK  246  A    between atoms: _602  and  _603
REMARK  247  A    between atoms: _603  and  _604
REMARK  248  A    between atoms: _604  and  _605
REMARK  249  A    between atoms: _605  and  _606
REMARK  250  A    between atoms: _610  and  _612
REMARK  251  A    between atoms: _612  and  _613
REMARK  252  A    between atoms: _612  and  _615
REMARK  253  A    between atoms: _615  and  _616
REMARK  254  A    between atoms: _621  and  _623
REMARK  255  A    between atoms: _623  and  _624
REMARK  256  A    between atoms: _623  and  _626
REMARK  257  A    between atoms: _626  and  _627
REMARK  258  A    between atoms: _627  and  _628
REMARK  259  A    between atoms: _628  and  _629
REMARK  260  A    between atoms: _629  and  _630
REMARK  261  A    between atoms: _634  and  _636
REMARK  262  A    between atoms: _636  and  _637
REMARK  263  A    between atoms: _636  and  _639
REMARK  264  A    between atoms: _639  and  _640
REMARK  265  A    between atoms: _650  and  _652
REMARK  266  A    between atoms: _652  and  _653
REMARK  267  A    between atoms: _656  and  _658
REMARK  268  A    between atoms: _658  and  _659
REMARK  269  A    between atoms: _661  and  _663
REMARK  270  A    between atoms: _663  and  _664
REMARK  271  A    between atoms: _667  and  _669
REMARK  272  A    between atoms: _669  and  _670
REMARK  273  A    between atoms: _673  and  _675
REMARK  274  A    between atoms: _675  and  _676
REMARK  275  A    between atoms: _675  and  _678
REMARK  276  A    between atoms: _678  and  _679
REMARK  277  A    between atoms: _684  and  _685
REMARK  278  A    between atoms: _687  and  _689
REMARK  279  A    between atoms: _689  and  _690
REMARK  280  A    between atoms: _689  and  _692
REMARK  281  A    between atoms: _692  and  _693
REMARK  282  A    between atoms: _698  and  _699
REMARK  283  A    between atoms: _701  and  _703
REMARK  284  A    between atoms: _703  and  _704
REMARK  285  A    between atoms: _703  and  _706
REMARK  286  A    between atoms: _706  and  _707
REMARK  287  A    between atoms: _712  and  _713
REMARK  288  A    between atoms: _715  and  _717
REMARK  289  A    between atoms: _717  and  _718
REMARK  290  A    between atoms: _717  and  _720
REMARK  291  A    between atoms: _720  and  _721
REMARK  292  A    between atoms: _724  and  _726
REMARK  293  A    between atoms: _726  and  _727
REMARK  294  A    between atoms: _729  and  _731
REMARK  295  A    between atoms: _731  and  _732
REMARK  296  A    between atoms: _731  and  _734
REMARK  297  A    between atoms: _734  and  _735
REMARK  298  A    between atoms: _738  and  _740
REMARK  299  A    between atoms: _740  and  _741
REMARK  300  A    between atoms: _740  and  _743
REMARK  301  A    between atoms: _743  and  _744
REMARK  302  A    between atoms: _745  and  _747
REMARK  303  A    between atoms: _747  and  _748
REMARK  304  A    between atoms: _747  and  _750
REMARK  305  A    between atoms: _753  and  _755
REMARK  306  A    between atoms: _755  and  _756
REMARK  307  A    between atoms: _755  and  _758
REMARK  308  A    between atoms: _758  and  _759
REMARK  309  A    between atoms: _759  and  _760
REMARK  310  A    between atoms: _763  and  _765
REMARK  311  A    between atoms: _765  and  _766
REMARK  312  A    between atoms: _765  and  _768
REMARK  313  A    between atoms: _768  and  _769
REMARK  314  A    between atoms: _779  and  _781
REMARK  315  A    between atoms: _781  and  _782
REMARK  316  A    between atoms: _781  and  _784
REMARK  317  A    between atoms: _784  and  _785
REMARK  318  A    between atoms: _788  and  _790
REMARK  319  A    between atoms: _790  and  _791
REMARK  320  A    between atoms: _790  and  _793
REMARK  321  A    between atoms: _793  and  _794
REMARK  322  A    between atoms: _799  and  _800
REMARK                            x       y       z     vdW  Elec       q    Type
REMARK                         _______ _______ _______ _____ _____    ______ ____
ROOT
ATOM      1  O   HOH     1      55.255  61.864   7.981  0.00  0.00    +0.000 OA
ENDROOT
TORSDOF 0
REMARK  Name = ../refined-set-2016/1fzk/1fzk_pocket.pdb
REMARK  322 active torsions:
REMARK  status: ('A' for Active; 'I' for Inactive)
REMARK    1  A    between atoms: _1  and  _3
REMARK    2  A    between atoms: _3  and  _4
REMARK    3  A    between atoms: _3  and  _6
REMARK    4  A    between atoms: _6  and  _7
REMARK    5  A    between atoms: _10  and  _12
REMARK    6  A    between atoms: _12  and  _13
REMARK    7  A    between atoms: _12  and  _15
REMARK    8  A    between atoms: _15  and  _16
REMARK    9  A    between atoms: _16  and  _17
REMARK   10  A    between atoms: _17  and  _18
REMARK   11  A    between atoms: _27  and  _29
REMARK   12  A    between atoms: _29  and  _30
REMARK   13  A    between atoms: _29  and  _32
REMARK   14  A    between atoms: _32  and  _33
REMARK   15  A    between atoms: _38  and  _39
REMARK   16  A    between atoms: _41  and  _43
REMARK   17  A    between atoms: _43  and  _44
REMARK   18  A    between atoms: _43  and  _46
REMARK   19  A    between atoms: _46  and  _47
REMARK   20  A    between atoms: _53  and  _55
REMARK   21  A    between atoms: _55  and  _56
REMARK   22  A    between atoms: _55  and  _58
REMARK   23  A    between atoms: _61  and  _63
REMARK   24  A    between atoms: _63  and  _64
REMARK   25  A    between atoms: _63  and  _66
REMARK   26  A    between atoms: _66  and  _67
REMARK   27  A    between atoms: _70  and  _72
REMARK   28  A    between atoms: _72  and  _73
REMARK   29  A    between atoms: _72  and  _75
REMARK   30  A    between atoms: _75  and  _76
REMARK   31  A    between atoms: _81  and  _82
REMARK   32  A    between atoms: _84  and  _86
REMARK   33  A    between atoms: _86  and  _87
REMARK   34  A    between atoms: _86  and  _89
REMARK   35  A    between atoms: _89  and  _90
REMARK   36  A    between atoms: _90  and  _91
REMARK   37  A    between atoms: _93  and  _95
REMARK   38  A    between atoms: _95  and  _96
REMARK   39  A    between atoms: _95  and  _98
REMARK   40  A    between atoms: _98  and  _99
REMARK   41  A    between atoms: _99  and  _100
REMARK   42  A    between atoms: _103  and  _105
REMARK   43  A    between atoms: _105  and  _106
REMARK   44  A    between atoms: _105  and  _108
REMARK   45  A    between atoms: _111  and  _113
REMARK   46  A    between atoms: _113  and  _114
REMARK   47  A    between atoms: _116  and  _118
REMARK   48  A    between atoms: _118  and  _119
REMARK   49  A    between atoms: _118  and  _121
REMARK   50  A    between atoms: _124  and  _126
REMARK   51  A    between atoms: _126  and  _127
REMARK   52  A    between atoms: _126  and  _129
REMARK   53  A    between atoms: _129  and  _130
REMARK   54  A    between atoms: _136  and  _138
REMARK   55  A    between atoms: _138  and  _139
REMARK   56  A    between atoms: _138  and  _141
REMARK   57  A    between atoms: _144  and  _146
REMARK   58  A    between atoms: _146  and  _147
REMARK   59  A    between atoms: _146  and  _149
REMARK   60  A    between atoms: _149  and  _150
REMARK   61  A    between atoms: _155  and  _156
REMARK   62  A    between atoms: _158  and  _160
REMARK   63  A    between atoms: _160  and  _161
REMARK   64  A    between atoms: _160  and  _163
REMARK   65  A    between atoms: _163  and  _164
REMARK   66  A    between atoms: _164  and  _165
REMARK   67  A    between atoms: _167  and  _169
REMARK   68  A    between atoms: _169  and  _170
REMARK   69  A    between atoms: _169  and  _172
REMARK   70  A    between atoms: _172  and  _173
REMARK   71  A    between atoms: _173  and  _174
REMARK   72  A    between atoms: _177  and  _179
REMARK   73  A    between atoms: _179  and  _180
REMARK   74  A    between atoms: _179  and  _182
REMARK   75  A    between atoms: _182  and  _183
REMARK   76  A    between atoms: _183  and  _184
REMARK   77  A    between atoms: _187  and  _189
REMARK   78  A    between atoms: _189  and  _190
REMARK   79  A    between atoms: _189  and  _192
REMARK   80  A    between atoms: _192  and  _193
REMARK   81  A    between atoms: _198  and  _199
REMARK   82  A    between atoms: _201  and  _203
REMARK   83  A    between atoms: _203  and  _204
REMARK   84  A    between atoms: _203  and  _206
REMARK   85  A    between atoms: _206  and  _207
REMARK   86  A    between atoms: _207  and  _208
REMARK   87  A    between atoms: _208  and  _209
REMARK   88  A    between atoms: _218  and  _220
REMARK   89  A    between atoms: _220  and  _221
REMARK   90  A    between atoms: _220  and  _223
REMARK   91  A    between atoms: _223  and  _224
REMARK   92  A    between atoms: _224  and  _225
REMARK   93  A    between atoms: _228  and  _230
REMARK   94  A    between atoms: _230  and  _231
REMARK   95  A    between atoms: _230  and  _233
REMARK   96  A    between atoms: _233  and  _234
REMARK   97  A    between atoms: _234  and  _235
REMARK   98  A    between atoms: _240  and  _242
REMARK   99  A    between atoms: _242  and  _243
REMARK  100  A    between atoms: _242  and  _245
REMARK  101  A    between atoms: _245  and  _246
REMARK  102  A    between atoms: _246  and  _247
REMARK  103  A    between atoms: _247  and  _248
REMARK  104  A    between atoms: _248  and  _249
REMARK  105  A    between atoms: _253  and  _255
REMARK  106  A    between atoms: _255  and  _256
REMARK  107  A    between atoms: _259  and  _261
REMARK  108  A    between atoms: _261  and  _262
REMARK  109  A    between atoms: _264  and  _266
REMARK  110  A    between atoms: _266  and  _267
REMARK  111  A    between atoms: _266  and  _269
REMARK  112  A    between atoms: _269  and  _270
REMARK  113  A    between atoms: _275  and  _277
REMARK  114  A    between atoms: _277  and  _278
REMARK  115  A    between atoms: _277  and  _280
REMARK  116  A    between atoms: _280  and  _281
REMARK  117  A    between atoms: _281  and  _282
REMARK  118  A    between atoms: _285  and  _287
REMARK  119  A    between atoms: _287  and  _288
REMARK  120  A    between atoms: _287  and  _290
REMARK  121  A    between atoms: _290  and  _291
REMARK  122  A    between atoms: _291  and  _292
REMARK  123  A    between atoms: _297  and  _299
REMARK  124  A    between atoms: _299  and  _300
REMARK  125  A    between atoms: _299  and  _302
REMARK  126  A    between atoms: _302  and  _303
REMARK  127  A    between atoms: _305  and  _307
REMARK  128  A    between atoms: _307  and  _308
REMARK  129  A    between atoms: _307  and  _310
REMARK  130  A    between atoms: _310  and  _311
REMARK  131  A    between atoms: _317  and  _319
REMARK  132  A    between atoms: _319  and  _320
REMARK  133  A    between atoms: _319  and  _322
REMARK  134  A    between atoms: _325  and  _327
REMARK  135  A    between atoms: _327  and  _328
REMARK  136  A    between atoms: _327  and  _330
REMARK  137  A    between atoms: _330  and  _331
REMARK  138  A    between atoms: _334  and  _336
REMARK  139  A    between atoms: _336  and  _337
REMARK  140  A    between atoms: _336  and  _339
REMARK  141  A    between atoms: _339  and  _340
REMARK  142  A    between atoms: _343  and  _345
REMARK  143  A    between atoms: _345  and  _346
REMARK  144  A    between atoms: _345  and  _348
REMARK  145  A    between atoms: _348  and  _349
REMARK  146  A    between atoms: _352  and  _354
REMARK  147  A    between atoms: _354  and  _355
REMARK  148  A    between atoms: _354  and  _357
REMARK  149  A    between atoms: _357  and  _358
REMARK  150  A    between atoms: _361  and  _363
REMARK  151  A    between atoms: _363  and  _364
REMARK  152  A    between atoms: _363  and  _366
REMARK  153  A    between atoms: _366  and  _367
REMARK  154  A    between atoms: _372  and  _373
REMARK  155  A    between atoms: _375  and  _377
REMARK  156  A    between atoms: _377  and  _378
REMARK  157  A    between atoms: _377  and  _380
REMARK  158  A    between atoms: _380  and  _381
REMARK  159  A    between atoms: _386  and  _387
REMARK  160  A    between atoms: _389  and  _391
REMARK  161  A    between atoms: _391  and  _392
REMARK  162  A    between atoms: _391  and  _394
REMARK  163  A    between atoms: _394  and  _395
REMARK  164  A    between atoms: _398  and  _400
REMARK  165  A    between atoms: _400  and  _401
REMARK  166  A    between atoms: _400  and  _403
REMARK  167  A    between atoms: _403  and  _404
REMARK  168  A    between atoms: _404  and  _405
REMARK  169  A    between atoms: _410  and  _412
REMARK  170  A    between atoms: _412  and  _413
REMARK  171  A    between atoms: _412  and  _415
REMARK  172  A    between atoms: _418  and  _420
REMARK  173  A    between atoms: _420  and  _421
REMARK  174  A    between atoms: _420  and  _423
REMARK  175  A    between atoms: _423  and  _424
REMARK  176  A    between atoms: _427  and  _429
REMARK  177  A    between atoms: _429  and  _430
REMARK  178  A    between atoms: _429  and  _432
REMARK  179  A    between atoms: _432  and  _433
REMARK  180  A    between atoms: _435  and  _437
REMARK  181  A    between atoms: _437  and  _438
REMARK  182  A    between atoms: _440  and  _442
REMARK  183  A    between atoms: _442  and  _443
REMARK  184  A    between atoms: _442  and  _445
REMARK  185  A    between atoms: _445  and  _446
REMARK  186  A    between atoms: _446  and  _744
REMARK  187  A    between atoms: _447  and  _449
REMARK  188  A    between atoms: _449  and  _450
REMARK  189  A    between atoms: _449  and  _452
REMARK  190  A    between atoms: _452  and  _453
REMARK  191  A    between atoms: _458  and  _459
REMARK  192  A    between atoms: _461  and  _463
REMARK  193  A    between atoms: _463  and  _464
REMARK  194  A    between atoms: _463  and  _466
REMARK  195  A    between atoms: _466  and  _467
REMARK  196  A    between atoms: _467  and  _468
REMARK  197  A    between atoms: _473  and  _475
REMARK  198  A    between atoms: _475  and  _476
REMARK  199  A    between atoms: _475  and  _478
REMARK  200  A    between atoms: _478  and  _479
REMARK  201  A    between atoms: _479  and  _480
REMARK  202  A    between atoms: _485  and  _487
REMARK  203  A    between atoms: _487  and  _488
REMARK  204  A    between atoms: _487  and  _490
REMARK  205  A    between atoms: _490  and  _491
REMARK  206  A    between atoms: _496  and  _497
REMARK  207  A    between atoms: _499  and  _501
REMARK  208  A    between atoms: _501  and  _502
REMARK  209  A    between atoms: _505  and  _507
REMARK  210  A    between atoms: _507  and  _508
REMARK  211  A    between atoms: _507  and  _510
REMARK  212  A    between atoms: _510  and  _511
REMARK  213  A    between atoms: _516  and  _517
REMARK  214  A    between atoms: _519  and  _521
REMARK  215  A    between atoms: _521  and  _522
REMARK  216  A    between atoms: _521  and  _524
REMARK  217  A    between atoms: _524  and  _525
REMARK  218  A    between atoms: _530  and  _531
REMARK  219  A    between atoms: _533  and  _535
REMARK  220  A    between atoms: _535  and  _536
REMARK  221  A    between atoms: _535  and  _538
REMARK  222  A    between atoms: _538  and  _539
REMARK  223  A    between atoms: _542  and  _544
REMARK  224  A    between atoms: _544  and  _545
REMARK  225  A    between atoms: _544  and  _547
REMARK  226  A    between atoms: _547  and  _548
REMARK  227  A    between atoms: _558  and  _560
REMARK  228  A    between atoms: _560  and  _561
REMARK  229  A    between atoms: _564  and  _566
REMARK  230  A    between atoms: _566  and  _567
REMARK  231  A    between atoms: _570  and  _572
REMARK  232  A    between atoms: _572  and  _573
REMARK  233  A    between atoms: _572  and  _575
REMARK  234  A    between atoms: _575  and  _576
REMARK  235  A    between atoms: _579  and  _581
REMARK  236  A    between atoms: _581  and  _582
REMARK  237  A    between atoms: _581  and  _584
REMARK  238  A    between atoms: _584  and  _585
REMARK  239  A    between atoms: _588  and  _590
REMARK  240  A    between atoms: _590  and  _591
REMARK  241  A    between atoms: _590  and  _593
REMARK  242  A    between atoms: _593  and  _594
REMARK  243  A    between atoms: _597  and  _599
REMARK  244  A    between atoms: _599  and  _600
REMARK  245  A    between atoms: _599  and  _602
REMARK  246  A    between atoms: _602  and  _603
REMARK  247  A    between atoms: _603  and  _604
REMARK  248  A    between atoms: _604  and  _605
REMARK  249  A    between atoms: _605  and  _606
REMARK  250  A    between atoms: _610  and  _612
REMARK  251  A    between atoms: _612  and  _613
REMARK  252  A    between atoms: _612  and  _615
REMARK  253  A    between atoms: _615  and  _616
REMARK  254  A    between atoms: _621  and  _623
REMARK  255  A    between atoms: _623  and  _624
REMARK  256  A    between atoms: _623  and  _626
REMARK  257  A    between atoms: _626  and  _627
REMARK  258  A    between atoms: _627  and  _628
REMARK  259  A    between atoms: _628  and  _629
REMARK  260  A    between atoms: _629  and  _630
REMARK  261  A    between atoms: _634  and  _636
REMARK  262  A    between atoms: _636  and  _637
REMARK  263  A    between atoms: _636  and  _639
REMARK  264  A    between atoms: _639  and  _640
REMARK  265  A    between atoms: _650  and  _652
REMARK  266  A    between atoms: _652  and  _653
REMARK  267  A    between atoms: _656  and  _658
REMARK  268  A    between atoms: _658  and  _659
REMARK  269  A    between atoms: _661  and  _663
REMARK  270  A    between atoms: _663  and  _664
REMARK  271  A    between atoms: _667  and  _669
REMARK  272  A    between atoms: _669  and  _670
REMARK  273  A    between atoms: _673  and  _675
REMARK  274  A    between atoms: _675  and  _676
REMARK  275  A    between atoms: _675  and  _678
REMARK  276  A    between atoms: _678  and  _679
REMARK  277  A    between atoms: _684  and  _685
REMARK  278  A    between atoms: _687  and  _689
REMARK  279  A    between atoms: _689  and  _690
REMARK  280  A    between atoms: _689  and  _692
REMARK  281  A    between atoms: _692  and  _693
REMARK  282  A    between atoms: _698  and  _699
REMARK  283  A    between atoms: _701  and  _703
REMARK  284  A    between atoms: _703  and  _704
REMARK  285  A    between atoms: _703  and  _706
REMARK  286  A    between atoms: _706  and  _707
REMARK  287  A    between atoms: _712  and  _713
REMARK  288  A    between atoms: _715  and  _717
REMARK  289  A    between atoms: _717  and  _718
REMARK  290  A    between atoms: _717  and  _720
REMARK  291  A    between atoms: _720  and  _721
REMARK  292  A    between atoms: _724  and  _726
REMARK  293  A    between atoms: _726  and  _727
REMARK  294  A    between atoms: _729  and  _731
REMARK  295  A    between atoms: _731  and  _732
REMARK  296  A    between atoms: _731  and  _734
REMARK  297  A    between atoms: _734  and  _735
REMARK  298  A    between atoms: _738  and  _740
REMARK  299  A    between atoms: _740  and  _741
REMARK  300  A    between atoms: _740  and  _743
REMARK  301  A    between atoms: _743  and  _744
REMARK  302  A    between atoms: _745  and  _747
REMARK  303  A    between atoms: _747  and  _748
REMARK  304  A    between atoms: _747  and  _750
REMARK  305  A    between atoms: _753  and  _755
REMARK  306  A    between atoms: _755  and  _756
REMARK  307  A    between atoms: _755  and  _758
REMARK  308  A    between atoms: _758  and  _759
REMARK  309  A    between atoms: _759  and  _760
REMARK  310  A    between atoms: _763  and  _765
REMARK  311  A    between atoms: _765  and  _766
REMARK  312  A    between atoms: _765  and  _768
REMARK  313  A    between atoms: _768  and  _769
REMARK  314  A    between atoms: _779  and  _781
REMARK  315  A    between atoms: _781  and  _782
REMARK  316  A    between atoms: _781  and  _784
REMARK  317  A    between atoms: _784  and  _785
REMARK  318  A    between atoms: _788  and  _790
REMARK  319  A    between atoms: _790  and  _791
REMARK  320  A    between atoms: _790  and  _793
REMARK  321  A    between atoms: _793  and  _794
REMARK  322  A    between atoms: _799  and  _800
REMARK                            x       y       z     vdW  Elec       q    Type
REMARK                         _______ _______ _______ _____ _____    ______ ____
ROOT
ATOM      1  O   HOH     1      42.020  56.880   2.338  0.00  0.00    +0.000 OA
ENDROOT
TORSDOF 0
REMARK  Name = ../refined-set-2016/1fzk/1fzk_pocket.pdb
REMARK  322 active torsions:
REMARK  status: ('A' for Active; 'I' for Inactive)
REMARK    1  A    between atoms: _1  and  _3
REMARK    2  A    between atoms: _3  and  _4
REMARK    3  A    between atoms: _3  and  _6
REMARK    4  A    between atoms: _6  and  _7
REMARK    5  A    between atoms: _10  and  _12
REMARK    6  A    between atoms: _12  and  _13
REMARK    7  A    between atoms: _12  and  _15
REMARK    8  A    between atoms: _15  and  _16
REMARK    9  A    between atoms: _16  and  _17
REMARK   10  A    between atoms: _17  and  _18
REMARK   11  A    between atoms: _27  and  _29
REMARK   12  A    between atoms: _29  and  _30
REMARK   13  A    between atoms: _29  and  _32
REMARK   14  A    between atoms: _32  and  _33
REMARK   15  A    between atoms: _38  and  _39
REMARK   16  A    between atoms: _41  and  _43
REMARK   17  A    between atoms: _43  and  _44
REMARK   18  A    between atoms: _43  and  _46
REMARK   19  A    between atoms: _46  and  _47
REMARK   20  A    between atoms: _53  and  _55
REMARK   21  A    between atoms: _55  and  _56
REMARK   22  A    between atoms: _55  and  _58
REMARK   23  A    between atoms: _61  and  _63
REMARK   24  A    between atoms: _63  and  _64
REMARK   25  A    between atoms: _63  and  _66
REMARK   26  A    between atoms: _66  and  _67
REMARK   27  A    between atoms: _70  and  _72
REMARK   28  A    between atoms: _72  and  _73
REMARK   29  A    between atoms: _72  and  _75
REMARK   30  A    between atoms: _75  and  _76
REMARK   31  A    between atoms: _81  and  _82
REMARK   32  A    between atoms: _84  and  _86
REMARK   33  A    between atoms: _86  and  _87
REMARK   34  A    between atoms: _86  and  _89
REMARK   35  A    between atoms: _89  and  _90
REMARK   36  A    between atoms: _90  and  _91
REMARK   37  A    between atoms: _93  and  _95
REMARK   38  A    between atoms: _95  and  _96
REMARK   39  A    between atoms: _95  and  _98
REMARK   40  A    between atoms: _98  and  _99
REMARK   41  A    between atoms: _99  and  _100
REMARK   42  A    between atoms: _103  and  _105
REMARK   43  A    between atoms: _105  and  _106
REMARK   44  A    between atoms: _105  and  _108
REMARK   45  A    between atoms: _111  and  _113
REMARK   46  A    between atoms: _113  and  _114
REMARK   47  A    between atoms: _116  and  _118
REMARK   48  A    between atoms: _118  and  _119
REMARK   49  A    between atoms: _118  and  _121
REMARK   50  A    between atoms: _124  and  _126
REMARK   51  A    between atoms: _126  and  _127
REMARK   52  A    between atoms: _126  and  _129
REMARK   53  A    between atoms: _129  and  _130
REMARK   54  A    between atoms: _136  and  _138
REMARK   55  A    between atoms: _138  and  _139
REMARK   56  A    between atoms: _138  and  _141
REMARK   57  A    between atoms: _144  and  _146
REMARK   58  A    between atoms: _146  and  _147
REMARK   59  A    between atoms: _146  and  _149
REMARK   60  A    between atoms: _149  and  _150
REMARK   61  A    between atoms: _155  and  _156
REMARK   62  A    between atoms: _158  and  _160
REMARK   63  A    between atoms: _160  and  _161
REMARK   64  A    between atoms: _160  and  _163
REMARK   65  A    between atoms: _163  and  _164
REMARK   66  A    between atoms: _164  and  _165
REMARK   67  A    between atoms: _167  and  _169
REMARK   68  A    between atoms: _169  and  _170
REMARK   69  A    between atoms: _169  and  _172
REMARK   70  A    between atoms: _172  and  _173
REMARK   71  A    between atoms: _173  and  _174
REMARK   72  A    between atoms: _177  and  _179
REMARK   73  A    between atoms: _179  and  _180
REMARK   74  A    between atoms: _179  and  _182
REMARK   75  A    between atoms: _182  and  _183
REMARK   76  A    between atoms: _183  and  _184
REMARK   77  A    between atoms: _187  and  _189
REMARK   78  A    between atoms: _189  and  _190
REMARK   79  A    between atoms: _189  and  _192
REMARK   80  A    between atoms: _192  and  _193
REMARK   81  A    between atoms: _198  and  _199
REMARK   82  A    between atoms: _201  and  _203
REMARK   83  A    between atoms: _203  and  _204
REMARK   84  A    between atoms: _203  and  _206
REMARK   85  A    between atoms: _206  and  _207
REMARK   86  A    between atoms: _207  and  _208
REMARK   87  A    between atoms: _208  and  _209
REMARK   88  A    between atoms: _218  and  _220
REMARK   89  A    between atoms: _220  and  _221
REMARK   90  A    between atoms: _220  and  _223
REMARK   91  A    between atoms: _223  and  _224
REMARK   92  A    between atoms: _224  and  _225
REMARK   93  A    between atoms: _228  and  _230
REMARK   94  A    between atoms: _230  and  _231
REMARK   95  A    between atoms: _230  and  _233
REMARK   96  A    between atoms: _233  and  _234
REMARK   97  A    between atoms: _234  and  _235
REMARK   98  A    between atoms: _240  and  _242
REMARK   99  A    between atoms: _242  and  _243
REMARK  100  A    between atoms: _242  and  _245
REMARK  101  A    between atoms: _245  and  _246
REMARK  102  A    between atoms: _246  and  _247
REMARK  103  A    between atoms: _247  and  _248
REMARK  104  A    between atoms: _248  and  _249
REMARK  105  A    between atoms: _253  and  _255
REMARK  106  A    between atoms: _255  and  _256
REMARK  107  A    between atoms: _259  and  _261
REMARK  108  A    between atoms: _261  and  _262
REMARK  109  A    between atoms: _264  and  _266
REMARK  110  A    between atoms: _266  and  _267
REMARK  111  A    between atoms: _266  and  _269
REMARK  112  A    between atoms: _269  and  _270
REMARK  113  A    between atoms: _275  and  _277
REMARK  114  A    between atoms: _277  and  _278
REMARK  115  A    between atoms: _277  and  _280
REMARK  116  A    between atoms: _280  and  _281
REMARK  117  A    between atoms: _281  and  _282
REMARK  118  A    between atoms: _285  and  _287
REMARK  119  A    between atoms: _287  and  _288
REMARK  120  A    between atoms: _287  and  _290
REMARK  121  A    between atoms: _290  and  _291
REMARK  122  A    between atoms: _291  and  _292
REMARK  123  A    between atoms: _297  and  _299
REMARK  124  A    between atoms: _299  and  _300
REMARK  125  A    between atoms: _299  and  _302
REMARK  126  A    between atoms: _302  and  _303
REMARK  127  A    between atoms: _305  and  _307
REMARK  128  A    between atoms: _307  and  _308
REMARK  129  A    between atoms: _307  and  _310
REMARK  130  A    between atoms: _310  and  _311
REMARK  131  A    between atoms: _317  and  _319
REMARK  132  A    between atoms: _319  and  _320
REMARK  133  A    between atoms: _319  and  _322
REMARK  134  A    between atoms: _325  and  _327
REMARK  135  A    between atoms: _327  and  _328
REMARK  136  A    between atoms: _327  and  _330
REMARK  137  A    between atoms: _330  and  _331
REMARK  138  A    between atoms: _334  and  _336
REMARK  139  A    between atoms: _336  and  _337
REMARK  140  A    between atoms: _336  and  _339
REMARK  141  A    between atoms: _339  and  _340
REMARK  142  A    between atoms: _343  and  _345
REMARK  143  A    between atoms: _345  and  _346
REMARK  144  A    between atoms: _345  and  _348
REMARK  145  A    between atoms: _348  and  _349
REMARK  146  A    between atoms: _352  and  _354
REMARK  147  A    between atoms: _354  and  _355
REMARK  148  A    between atoms: _354  and  _357
REMARK  149  A    between atoms: _357  and  _358
REMARK  150  A    between atoms: _361  and  _363
REMARK  151  A    between atoms: _363  and  _364
REMARK  152  A    between atoms: _363  and  _366
REMARK  153  A    between atoms: _366  and  _367
REMARK  154  A    between atoms: _372  and  _373
REMARK  155  A    between atoms: _375  and  _377
REMARK  156  A    between atoms: _377  and  _378
REMARK  157  A    between atoms: _377  and  _380
REMARK  158  A    between atoms: _380  and  _381
REMARK  159  A    between atoms: _386  and  _387
REMARK  160  A    between atoms: _389  and  _391
REMARK  161  A    between atoms: _391  and  _392
REMARK  162  A    between atoms: _391  and  _394
REMARK  163  A    between atoms: _394  and  _395
REMARK  164  A    between atoms: _398  and  _400
REMARK  165  A    between atoms: _400  and  _401
REMARK  166  A    between atoms: _400  and  _403
REMARK  167  A    between atoms: _403  and  _404
REMARK  168  A    between atoms: _404  and  _405
REMARK  169  A    between atoms: _410  and  _412
REMARK  170  A    between atoms: _412  and  _413
REMARK  171  A    between atoms: _412  and  _415
REMARK  172  A    between atoms: _418  and  _420
REMARK  173  A    between atoms: _420  and  _421
REMARK  174  A    between atoms: _420  and  _423
REMARK  175  A    between atoms: _423  and  _424
REMARK  176  A    between atoms: _427  and  _429
REMARK  177  A    between atoms: _429  and  _430
REMARK  178  A    between atoms: _429  and  _432
REMARK  179  A    between atoms: _432  and  _433
REMARK  180  A    between atoms: _435  and  _437
REMARK  181  A    between atoms: _437  and  _438
REMARK  182  A    between atoms: _440  and  _442
REMARK  183  A    between atoms: _442  and  _443
REMARK  184  A    between atoms: _442  and  _445
REMARK  185  A    between atoms: _445  and  _446
REMARK  186  A    between atoms: _446  and  _744
REMARK  187  A    between atoms: _447  and  _449
REMARK  188  A    between atoms: _449  and  _450
REMARK  189  A    between atoms: _449  and  _452
REMARK  190  A    between atoms: _452  and  _453
REMARK  191  A    between atoms: _458  and  _459
REMARK  192  A    between atoms: _461  and  _463
REMARK  193  A    between atoms: _463  and  _464
REMARK  194  A    between atoms: _463  and  _466
REMARK  195  A    between atoms: _466  and  _467
REMARK  196  A    between atoms: _467  and  _468
REMARK  197  A    between atoms: _473  and  _475
REMARK  198  A    between atoms: _475  and  _476
REMARK  199  A    between atoms: _475  and  _478
REMARK  200  A    between atoms: _478  and  _479
REMARK  201  A    between atoms: _479  and  _480
REMARK  202  A    between atoms: _485  and  _487
REMARK  203  A    between atoms: _487  and  _488
REMARK  204  A    between atoms: _487  and  _490
REMARK  205  A    between atoms: _490  and  _491
REMARK  206  A    between atoms: _496  and  _497
REMARK  207  A    between atoms: _499  and  _501
REMARK  208  A    between atoms: _501  and  _502
REMARK  209  A    between atoms: _505  and  _507
REMARK  210  A    between atoms: _507  and  _508
REMARK  211  A    between atoms: _507  and  _510
REMARK  212  A    between atoms: _510  and  _511
REMARK  213  A    between atoms: _516  and  _517
REMARK  214  A    between atoms: _519  and  _521
REMARK  215  A    between atoms: _521  and  _522
REMARK  216  A    between atoms: _521  and  _524
REMARK  217  A    between atoms: _524  and  _525
REMARK  218  A    between atoms: _530  and  _531
REMARK  219  A    between atoms: _533  and  _535
REMARK  220  A    between atoms: _535  and  _536
REMARK  221  A    between atoms: _535  and  _538
REMARK  222  A    between atoms: _538  and  _539
REMARK  223  A    between atoms: _542  and  _544
REMARK  224  A    between atoms: _544  and  _545
REMARK  225  A    between atoms: _544  and  _547
REMARK  226  A    between atoms: _547  and  _548
REMARK  227  A    between atoms: _558  and  _560
REMARK  228  A    between atoms: _560  and  _561
REMARK  229  A    between atoms: _564  and  _566
REMARK  230  A    between atoms: _566  and  _567
REMARK  231  A    between atoms: _570  and  _572
REMARK  232  A    between atoms: _572  and  _573
REMARK  233  A    between atoms: _572  and  _575
REMARK  234  A    between atoms: _575  and  _576
REMARK  235  A    between atoms: _579  and  _581
REMARK  236  A    between atoms: _581  and  _582
REMARK  237  A    between atoms: _581  and  _584
REMARK  238  A    between atoms: _584  and  _585
REMARK  239  A    between atoms: _588  and  _590
REMARK  240  A    between atoms: _590  and  _591
REMARK  241  A    between atoms: _590  and  _593
REMARK  242  A    between atoms: _593  and  _594
REMARK  243  A    between atoms: _597  and  _599
REMARK  244  A    between atoms: _599  and  _600
REMARK  245  A    between atoms: _599  and  _602
REMARK  246  A    between atoms: _602  and  _603
REMARK  247  A    between atoms: _603  and  _604
REMARK  248  A    between atoms: _604  and  _605
REMARK  249  A    between atoms: _605  and  _606
REMARK  250  A    between atoms: _610  and  _612
REMARK  251  A    between atoms: _612  and  _613
REMARK  252  A    between atoms: _612  and  _615
REMARK  253  A    between atoms: _615  and  _616
REMARK  254  A    between atoms: _621  and  _623
REMARK  255  A    between atoms: _623  and  _624
REMARK  256  A    between atoms: _623  and  _626
REMARK  257  A    between atoms: _626  and  _627
REMARK  258  A    between atoms: _627  and  _628
REMARK  259  A    between atoms: _628  and  _629
REMARK  260  A    between atoms: _629  and  _630
REMARK  261  A    between atoms: _634  and  _636
REMARK  262  A    between atoms: _636  and  _637
REMARK  263  A    between atoms: _636  and  _639
REMARK  264  A    between atoms: _639  and  _640
REMARK  265  A    between atoms: _650  and  _652
REMARK  266  A    between atoms: _652  and  _653
REMARK  267  A    between atoms: _656  and  _658
REMARK  268  A    between atoms: _658  and  _659
REMARK  269  A    between atoms: _661  and  _663
REMARK  270  A    between atoms: _663  and  _664
REMARK  271  A    between atoms: _667  and  _669
REMARK  272  A    between atoms: _669  and  _670
REMARK  273  A    between atoms: _673  and  _675
REMARK  274  A    between atoms: _675  and  _676
REMARK  275  A    between atoms: _675  and  _678
REMARK  276  A    between atoms: _678  and  _679
REMARK  277  A    between atoms: _684  and  _685
REMARK  278  A    between atoms: _687  and  _689
REMARK  279  A    between atoms: _689  and  _690
REMARK  280  A    between atoms: _689  and  _692
REMARK  281  A    between atoms: _692  and  _693
REMARK  282  A    between atoms: _698  and  _699
REMARK  283  A    between atoms: _701  and  _703
REMARK  284  A    between atoms: _703  and  _704
REMARK  285  A    between atoms: _703  and  _706
REMARK  286  A    between atoms: _706  and  _707
REMARK  287  A    between atoms: _712  and  _713
REMARK  288  A    between atoms: _715  and  _717
REMARK  289  A    between atoms: _717  and  _718
REMARK  290  A    between atoms: _717  and  _720
REMARK  291  A    between atoms: _720  and  _721
REMARK  292  A    between atoms: _724  and  _726
REMARK  293  A    between atoms: _726  and  _727
REMARK  294  A    between atoms: _729  and  _731
REMARK  295  A    between atoms: _731  and  _732
REMARK  296  A    between atoms: _731  and  _734
REMARK  297  A    between atoms: _734  and  _735
REMARK  298  A    between atoms: _738  and  _740
REMARK  299  A    between atoms: _740  and  _741
REMARK  300  A    between atoms: _740  and  _743
REMARK  301  A    between atoms: _743  and  _744
REMARK  302  A    between atoms: _745  and  _747
REMARK  303  A    between atoms: _747  and  _748
REMARK  304  A    between atoms: _747  and  _750
REMARK  305  A    between atoms: _753  and  _755
REMARK  306  A    between atoms: _755  and  _756
REMARK  307  A    between atoms: _755  and  _758
REMARK  308  A    between atoms: _758  and  _759
REMARK  309  A    between atoms: _759  and  _760
REMARK  310  A    between atoms: _763  and  _765
REMARK  311  A    between atoms: _765  and  _766
REMARK  312  A    between atoms: _765  and  _768
REMARK  313  A    between atoms: _768  and  _769
REMARK  314  A    between atoms: _779  and  _781
REMARK  315  A    between atoms: _781  and  _782
REMARK  316  A    between atoms: _781  and  _784
REMARK  317  A    between atoms: _784  and  _785
REMARK  318  A    between atoms: _788  and  _790
REMARK  319  A    between atoms: _790  and  _791
REMARK  320  A    between atoms: _790  and  _793
REMARK  321  A    between atoms: _793  and  _794
REMARK  322  A    between atoms: _799  and  _800
REMARK                            x       y       z     vdW  Elec       q    Type
REMARK                         _______ _______ _______ _____ _____    ______ ____
ROOT
ATOM      1  O   HOH     1      50.656  64.142  -2.512  0.00  0.00    +0.000 OA
ENDROOT
TORSDOF 0
REMARK  Name = ../refined-set-2016/1fzk/1fzk_pocket.pdb
REMARK  322 active torsions:
REMARK  status: ('A' for Active; 'I' for Inactive)
REMARK    1  A    between atoms: _1  and  _3
REMARK    2  A    between atoms: _3  and  _4
REMARK    3  A    between atoms: _3  and  _6
REMARK    4  A    between atoms: _6  and  _7
REMARK    5  A    between atoms: _10  and  _12
REMARK    6  A    between atoms: _12  and  _13
REMARK    7  A    between atoms: _12  and  _15
REMARK    8  A    between atoms: _15  and  _16
REMARK    9  A    between atoms: _16  and  _17
REMARK   10  A    between atoms: _17  and  _18
REMARK   11  A    between atoms: _27  and  _29
REMARK   12  A    between atoms: _29  and  _30
REMARK   13  A    between atoms: _29  and  _32
REMARK   14  A    between atoms: _32  and  _33
REMARK   15  A    between atoms: _38  and  _39
REMARK   16  A    between atoms: _41  and  _43
REMARK   17  A    between atoms: _43  and  _44
REMARK   18  A    between atoms: _43  and  _46
REMARK   19  A    between atoms: _46  and  _47
REMARK   20  A    between atoms: _53  and  _55
REMARK   21  A    between atoms: _55  and  _56
REMARK   22  A    between atoms: _55  and  _58
REMARK   23  A    between atoms: _61  and  _63
REMARK   24  A    between atoms: _63  and  _64
REMARK   25  A    between atoms: _63  and  _66
REMARK   26  A    between atoms: _66  and  _67
REMARK   27  A    between atoms: _70  and  _72
REMARK   28  A    between atoms: _72  and  _73
REMARK   29  A    between atoms: _72  and  _75
REMARK   30  A    between atoms: _75  and  _76
REMARK   31  A    between atoms: _81  and  _82
REMARK   32  A    between atoms: _84  and  _86
REMARK   33  A    between atoms: _86  and  _87
REMARK   34  A    between atoms: _86  and  _89
REMARK   35  A    between atoms: _89  and  _90
REMARK   36  A    between atoms: _90  and  _91
REMARK   37  A    between atoms: _93  and  _95
REMARK   38  A    between atoms: _95  and  _96
REMARK   39  A    between atoms: _95  and  _98
REMARK   40  A    between atoms: _98  and  _99
REMARK   41  A    between atoms: _99  and  _100
REMARK   42  A    between atoms: _103  and  _105
REMARK   43  A    between atoms: _105  and  _106
REMARK   44  A    between atoms: _105  and  _108
REMARK   45  A    between atoms: _111  and  _113
REMARK   46  A    between atoms: _113  and  _114
REMARK   47  A    between atoms: _116  and  _118
REMARK   48  A    between atoms: _118  and  _119
REMARK   49  A    between atoms: _118  and  _121
REMARK   50  A    between atoms: _124  and  _126
REMARK   51  A    between atoms: _126  and  _127
REMARK   52  A    between atoms: _126  and  _129
REMARK   53  A    between atoms: _129  and  _130
REMARK   54  A    between atoms: _136  and  _138
REMARK   55  A    between atoms: _138  and  _139
REMARK   56  A    between atoms: _138  and  _141
REMARK   57  A    between atoms: _144  and  _146
REMARK   58  A    between atoms: _146  and  _147
REMARK   59  A    between atoms: _146  and  _149
REMARK   60  A    between atoms: _149  and  _150
REMARK   61  A    between atoms: _155  and  _156
REMARK   62  A    between atoms: _158  and  _160
REMARK   63  A    between atoms: _160  and  _161
REMARK   64  A    between atoms: _160  and  _163
REMARK   65  A    between atoms: _163  and  _164
REMARK   66  A    between atoms: _164  and  _165
REMARK   67  A    between atoms: _167  and  _169
REMARK   68  A    between atoms: _169  and  _170
REMARK   69  A    between atoms: _169  and  _172
REMARK   70  A    between atoms: _172  and  _173
REMARK   71  A    between atoms: _173  and  _174
REMARK   72  A    between atoms: _177  and  _179
REMARK   73  A    between atoms: _179  and  _180
REMARK   74  A    between atoms: _179  and  _182
REMARK   75  A    between atoms: _182  and  _183
REMARK   76  A    between atoms: _183  and  _184
REMARK   77  A    between atoms: _187  and  _189
REMARK   78  A    between atoms: _189  and  _190
REMARK   79  A    between atoms: _189  and  _192
REMARK   80  A    between atoms: _192  and  _193
REMARK   81  A    between atoms: _198  and  _199
REMARK   82  A    between atoms: _201  and  _203
REMARK   83  A    between atoms: _203  and  _204
REMARK   84  A    between atoms: _203  and  _206
REMARK   85  A    between atoms: _206  and  _207
REMARK   86  A    between atoms: _207  and  _208
REMARK   87  A    between atoms: _208  and  _209
REMARK   88  A    between atoms: _218  and  _220
REMARK   89  A    between atoms: _220  and  _221
REMARK   90  A    between atoms: _220  and  _223
REMARK   91  A    between atoms: _223  and  _224
REMARK   92  A    between atoms: _224  and  _225
REMARK   93  A    between atoms: _228  and  _230
REMARK   94  A    between atoms: _230  and  _231
REMARK   95  A    between atoms: _230  and  _233
REMARK   96  A    between atoms: _233  and  _234
REMARK   97  A    between atoms: _234  and  _235
REMARK   98  A    between atoms: _240  and  _242
REMARK   99  A    between atoms: _242  and  _243
REMARK  100  A    between atoms: _242  and  _245
REMARK  101  A    between atoms: _245  and  _246
REMARK  102  A    between atoms: _246  and  _247
REMARK  103  A    between atoms: _247  and  _248
REMARK  104  A    between atoms: _248  and  _249
REMARK  105  A    between atoms: _253  and  _255
REMARK  106  A    between atoms: _255  and  _256
REMARK  107  A    between atoms: _259  and  _261
REMARK  108  A    between atoms: _261  and  _262
REMARK  109  A    between atoms: _264  and  _266
REMARK  110  A    between atoms: _266  and  _267
REMARK  111  A    between atoms: _266  and  _269
REMARK  112  A    between atoms: _269  and  _270
REMARK  113  A    between atoms: _275  and  _277
REMARK  114  A    between atoms: _277  and  _278
REMARK  115  A    between atoms: _277  and  _280
REMARK  116  A    between atoms: _280  and  _281
REMARK  117  A    between atoms: _281  and  _282
REMARK  118  A    between atoms: _285  and  _287
REMARK  119  A    between atoms: _287  and  _288
REMARK  120  A    between atoms: _287  and  _290
REMARK  121  A    between atoms: _290  and  _291
REMARK  122  A    between atoms: _291  and  _292
REMARK  123  A    between atoms: _297  and  _299
REMARK  124  A    between atoms: _299  and  _300
REMARK  125  A    between atoms: _299  and  _302
REMARK  126  A    between atoms: _302  and  _303
REMARK  127  A    between atoms: _305  and  _307
REMARK  128  A    between atoms: _307  and  _308
REMARK  129  A    between atoms: _307  and  _310
REMARK  130  A    between atoms: _310  and  _311
REMARK  131  A    between atoms: _317  and  _319
REMARK  132  A    between atoms: _319  and  _320
REMARK  133  A    between atoms: _319  and  _322
REMARK  134  A    between atoms: _325  and  _327
REMARK  135  A    between atoms: _327  and  _328
REMARK  136  A    between atoms: _327  and  _330
REMARK  137  A    between atoms: _330  and  _331
REMARK  138  A    between atoms: _334  and  _336
REMARK  139  A    between atoms: _336  and  _337
REMARK  140  A    between atoms: _336  and  _339
REMARK  141  A    between atoms: _339  and  _340
REMARK  142  A    between atoms: _343  and  _345
REMARK  143  A    between atoms: _345  and  _346
REMARK  144  A    between atoms: _345  and  _348
REMARK  145  A    between atoms: _348  and  _349
REMARK  146  A    between atoms: _352  and  _354
REMARK  147  A    between atoms: _354  and  _355
REMARK  148  A    between atoms: _354  and  _357
REMARK  149  A    between atoms: _357  and  _358
REMARK  150  A    between atoms: _361  and  _363
REMARK  151  A    between atoms: _363  and  _364
REMARK  152  A    between atoms: _363  and  _366
REMARK  153  A    between atoms: _366  and  _367
REMARK  154  A    between atoms: _372  and  _373
REMARK  155  A    between atoms: _375  and  _377
REMARK  156  A    between atoms: _377  and  _378
REMARK  157  A    between atoms: _377  and  _380
REMARK  158  A    between atoms: _380  and  _381
REMARK  159  A    between atoms: _386  and  _387
REMARK  160  A    between atoms: _389  and  _391
REMARK  161  A    between atoms: _391  and  _392
REMARK  162  A    between atoms: _391  and  _394
REMARK  163  A    between atoms: _394  and  _395
REMARK  164  A    between atoms: _398  and  _400
REMARK  165  A    between atoms: _400  and  _401
REMARK  166  A    between atoms: _400  and  _403
REMARK  167  A    between atoms: _403  and  _404
REMARK  168  A    between atoms: _404  and  _405
REMARK  169  A    between atoms: _410  and  _412
REMARK  170  A    between atoms: _412  and  _413
REMARK  171  A    between atoms: _412  and  _415
REMARK  172  A    between atoms: _418  and  _420
REMARK  173  A    between atoms: _420  and  _421
REMARK  174  A    between atoms: _420  and  _423
REMARK  175  A    between atoms: _423  and  _424
REMARK  176  A    between atoms: _427  and  _429
REMARK  177  A    between atoms: _429  and  _430
REMARK  178  A    between atoms: _429  and  _432
REMARK  179  A    between atoms: _432  and  _433
REMARK  180  A    between atoms: _435  and  _437
REMARK  181  A    between atoms: _437  and  _438
REMARK  182  A    between atoms: _440  and  _442
REMARK  183  A    between atoms: _442  and  _443
REMARK  184  A    between atoms: _442  and  _445
REMARK  185  A    between atoms: _445  and  _446
REMARK  186  A    between atoms: _446  and  _744
REMARK  187  A    between atoms: _447  and  _449
REMARK  188  A    between atoms: _449  and  _450
REMARK  189  A    between atoms: _449  and  _452
REMARK  190  A    between atoms: _452  and  _453
REMARK  191  A    between atoms: _458  and  _459
REMARK  192  A    between atoms: _461  and  _463
REMARK  193  A    between atoms: _463  and  _464
REMARK  194  A    between atoms: _463  and  _466
REMARK  195  A    between atoms: _466  and  _467
REMARK  196  A    between atoms: _467  and  _468
REMARK  197  A    between atoms: _473  and  _475
REMARK  198  A    between atoms: _475  and  _476
REMARK  199  A    between atoms: _475  and  _478
REMARK  200  A    between atoms: _478  and  _479
REMARK  201  A    between atoms: _479  and  _480
REMARK  202  A    between atoms: _485  and  _487
REMARK  203  A    between atoms: _487  and  _488
REMARK  204  A    between atoms: _487  and  _490
REMARK  205  A    between atoms: _490  and  _491
REMARK  206  A    between atoms: _496  and  _497
REMARK  207  A    between atoms: _499  and  _501
REMARK  208  A    between atoms: _501  and  _502
REMARK  209  A    between atoms: _505  and  _507
REMARK  210  A    between atoms: _507  and  _508
REMARK  211  A    between atoms: _507  and  _510
REMARK  212  A    between atoms: _510  and  _511
REMARK  213  A    between atoms: _516  and  _517
REMARK  214  A    between atoms: _519  and  _521
REMARK  215  A    between atoms: _521  and  _522
REMARK  216  A    between atoms: _521  and  _524
REMARK  217  A    between atoms: _524  and  _525
REMARK  218  A    between atoms: _530  and  _531
REMARK  219  A    between atoms: _533  and  _535
REMARK  220  A    between atoms: _535  and  _536
REMARK  221  A    between atoms: _535  and  _538
REMARK  222  A    between atoms: _538  and  _539
REMARK  223  A    between atoms: _542  and  _544
REMARK  224  A    between atoms: _544  and  _545
REMARK  225  A    between atoms: _544  and  _547
REMARK  226  A    between atoms: _547  and  _548
REMARK  227  A    between atoms: _558  and  _560
REMARK  228  A    between atoms: _560  and  _561
REMARK  229  A    between atoms: _564  and  _566
REMARK  230  A    between atoms: _566  and  _567
REMARK  231  A    between atoms: _570  and  _572
REMARK  232  A    between atoms: _572  and  _573
REMARK  233  A    between atoms: _572  and  _575
REMARK  234  A    between atoms: _575  and  _576
REMARK  235  A    between atoms: _579  and  _581
REMARK  236  A    between atoms: _581  and  _582
REMARK  237  A    between atoms: _581  and  _584
REMARK  238  A    between atoms: _584  and  _585
REMARK  239  A    between atoms: _588  and  _590
REMARK  240  A    between atoms: _590  and  _591
REMARK  241  A    between atoms: _590  and  _593
REMARK  242  A    between atoms: _593  and  _594
REMARK  243  A    between atoms: _597  and  _599
REMARK  244  A    between atoms: _599  and  _600
REMARK  245  A    between atoms: _599  and  _602
REMARK  246  A    between atoms: _602  and  _603
REMARK  247  A    between atoms: _603  and  _604
REMARK  248  A    between atoms: _604  and  _605
REMARK  249  A    between atoms: _605  and  _606
REMARK  250  A    between atoms: _610  and  _612
REMARK  251  A    between atoms: _612  and  _613
REMARK  252  A    between atoms: _612  and  _615
REMARK  253  A    between atoms: _615  and  _616
REMARK  254  A    between atoms: _621  and  _623
REMARK  255  A    between atoms: _623  and  _624
REMARK  256  A    between atoms: _623  and  _626
REMARK  257  A    between atoms: _626  and  _627
REMARK  258  A    between atoms: _627  and  _628
REMARK  259  A    between atoms: _628  and  _629
REMARK  260  A    between atoms: _629  and  _630
REMARK  261  A    between atoms: _634  and  _636
REMARK  262  A    between atoms: _636  and  _637
REMARK  263  A    between atoms: _636  and  _639
REMARK  264  A    between atoms: _639  and  _640
REMARK  265  A    between atoms: _650  and  _652
REMARK  266  A    between atoms: _652  and  _653
REMARK  267  A    between atoms: _656  and  _658
REMARK  268  A    between atoms: _658  and  _659
REMARK  269  A    between atoms: _661  and  _663
REMARK  270  A    between atoms: _663  and  _664
REMARK  271  A    between atoms: _667  and  _669
REMARK  272  A    between atoms: _669  and  _670
REMARK  273  A    between atoms: _673  and  _675
REMARK  274  A    between atoms: _675  and  _676
REMARK  275  A    between atoms: _675  and  _678
REMARK  276  A    between atoms: _678  and  _679
REMARK  277  A    between atoms: _684  and  _685
REMARK  278  A    between atoms: _687  and  _689
REMARK  279  A    between atoms: _689  and  _690
REMARK  280  A    between atoms: _689  and  _692
REMARK  281  A    between atoms: _692  and  _693
REMARK  282  A    between atoms: _698  and  _699
REMARK  283  A    between atoms: _701  and  _703
REMARK  284  A    between atoms: _703  and  _704
REMARK  285  A    between atoms: _703  and  _706
REMARK  286  A    between atoms: _706  and  _707
REMARK  287  A    between atoms: _712  and  _713
REMARK  288  A    between atoms: _715  and  _717
REMARK  289  A    between atoms: _717  and  _718
REMARK  290  A    between atoms: _717  and  _720
REMARK  291  A    between atoms: _720  and  _721
REMARK  292  A    between atoms: _724  and  _726
REMARK  293  A    between atoms: _726  and  _727
REMARK  294  A    between atoms: _729  and  _731
REMARK  295  A    between atoms: _731  and  _732
REMARK  296  A    between atoms: _731  and  _734
REMARK  297  A    between atoms: _734  and  _735
REMARK  298  A    between atoms: _738  and  _740
REMARK  299  A    between atoms: _740  and  _741
REMARK  300  A    between atoms: _740  and  _743
REMARK  301  A    between atoms: _743  and  _744
REMARK  302  A    between atoms: _745  and  _747
REMARK  303  A    between atoms: _747  and  _748
REMARK  304  A    between atoms: _747  and  _750
REMARK  305  A    between atoms: _753  and  _755
REMARK  306  A    between atoms: _755  and  _756
REMARK  307  A    between atoms: _755  and  _758
REMARK  308  A    between atoms: _758  and  _759
REMARK  309  A    between atoms: _759  and  _760
REMARK  310  A    between atoms: _763  and  _765
REMARK  311  A    between atoms: _765  and  _766
REMARK  312  A    between atoms: _765  and  _768
REMARK  313  A    between atoms: _768  and  _769
REMARK  314  A    between atoms: _779  and  _781
REMARK  315  A    between atoms: _781  and  _782
REMARK  316  A    between atoms: _781  and  _784
REMARK  317  A    between atoms: _784  and  _785
REMARK  318  A    between atoms: _788  and  _790
REMARK  319  A    between atoms: _790  and  _791
REMARK  320  A    between atoms: _790  and  _793
REMARK  321  A    between atoms: _793  and  _794
REMARK  322  A    between atoms: _799  and  _800
REMARK                            x       y       z     vdW  Elec       q    Type
REMARK                         _______ _______ _______ _____ _____    ______ ____
ROOT
ATOM      1  O   HOH     1      50.408  67.248  -5.525  0.00  0.00    +0.000 OA
ENDROOT
TORSDOF 0
REMARK  Name = ../refined-set-2016/1fzk/1fzk_pocket.pdb
REMARK  322 active torsions:
REMARK  status: ('A' for Active; 'I' for Inactive)
REMARK    1  A    between atoms: _1  and  _3
REMARK    2  A    between atoms: _3  and  _4
REMARK    3  A    between atoms: _3  and  _6
REMARK    4  A    between atoms: _6  and  _7
REMARK    5  A    between atoms: _10  and  _12
REMARK    6  A    between atoms: _12  and  _13
REMARK    7  A    between atoms: _12  and  _15
REMARK    8  A    between atoms: _15  and  _16
REMARK    9  A    between atoms: _16  and  _17
REMARK   10  A    between atoms: _17  and  _18
REMARK   11  A    between atoms: _27  and  _29
REMARK   12  A    between atoms: _29  and  _30
REMARK   13  A    between atoms: _29  and  _32
REMARK   14  A    between atoms: _32  and  _33
REMARK   15  A    between atoms: _38  and  _39
REMARK   16  A    between atoms: _41  and  _43
REMARK   17  A    between atoms: _43  and  _44
REMARK   18  A    between atoms: _43  and  _46
REMARK   19  A    between atoms: _46  and  _47
REMARK   20  A    between atoms: _53  and  _55
REMARK   21  A    between atoms: _55  and  _56
REMARK   22  A    between atoms: _55  and  _58
REMARK   23  A    between atoms: _61  and  _63
REMARK   24  A    between atoms: _63  and  _64
REMARK   25  A    between atoms: _63  and  _66
REMARK   26  A    between atoms: _66  and  _67
REMARK   27  A    between atoms: _70  and  _72
REMARK   28  A    between atoms: _72  and  _73
REMARK   29  A    between atoms: _72  and  _75
REMARK   30  A    between atoms: _75  and  _76
REMARK   31  A    between atoms: _81  and  _82
REMARK   32  A    between atoms: _84  and  _86
REMARK   33  A    between atoms: _86  and  _87
REMARK   34  A    between atoms: _86  and  _89
REMARK   35  A    between atoms: _89  and  _90
REMARK   36  A    between atoms: _90  and  _91
REMARK   37  A    between atoms: _93  and  _95
REMARK   38  A    between atoms: _95  and  _96
REMARK   39  A    between atoms: _95  and  _98
REMARK   40  A    between atoms: _98  and  _99
REMARK   41  A    between atoms: _99  and  _100
REMARK   42  A    between atoms: _103  and  _105
REMARK   43  A    between atoms: _105  and  _106
REMARK   44  A    between atoms: _105  and  _108
REMARK   45  A    between atoms: _111  and  _113
REMARK   46  A    between atoms: _113  and  _114
REMARK   47  A    between atoms: _116  and  _118
REMARK   48  A    between atoms: _118  and  _119
REMARK   49  A    between atoms: _118  and  _121
REMARK   50  A    between atoms: _124  and  _126
REMARK   51  A    between atoms: _126  and  _127
REMARK   52  A    between atoms: _126  and  _129
REMARK   53  A    between atoms: _129  and  _130
REMARK   54  A    between atoms: _136  and  _138
REMARK   55  A    between atoms: _138  and  _139
REMARK   56  A    between atoms: _138  and  _141
REMARK   57  A    between atoms: _144  and  _146
REMARK   58  A    between atoms: _146  and  _147
REMARK   59  A    between atoms: _146  and  _149
REMARK   60  A    between atoms: _149  and  _150
REMARK   61  A    between atoms: _155  and  _156
REMARK   62  A    between atoms: _158  and  _160
REMARK   63  A    between atoms: _160  and  _161
REMARK   64  A    between atoms: _160  and  _163
REMARK   65  A    between atoms: _163  and  _164
REMARK   66  A    between atoms: _164  and  _165
REMARK   67  A    between atoms: _167  and  _169
REMARK   68  A    between atoms: _169  and  _170
REMARK   69  A    between atoms: _169  and  _172
REMARK   70  A    between atoms: _172  and  _173
REMARK   71  A    between atoms: _173  and  _174
REMARK   72  A    between atoms: _177  and  _179
REMARK   73  A    between atoms: _179  and  _180
REMARK   74  A    between atoms: _179  and  _182
REMARK   75  A    between atoms: _182  and  _183
REMARK   76  A    between atoms: _183  and  _184
REMARK   77  A    between atoms: _187  and  _189
REMARK   78  A    between atoms: _189  and  _190
REMARK   79  A    between atoms: _189  and  _192
REMARK   80  A    between atoms: _192  and  _193
REMARK   81  A    between atoms: _198  and  _199
REMARK   82  A    between atoms: _201  and  _203
REMARK   83  A    between atoms: _203  and  _204
REMARK   84  A    between atoms: _203  and  _206
REMARK   85  A    between atoms: _206  and  _207
REMARK   86  A    between atoms: _207  and  _208
REMARK   87  A    between atoms: _208  and  _209
REMARK   88  A    between atoms: _218  and  _220
REMARK   89  A    between atoms: _220  and  _221
REMARK   90  A    between atoms: _220  and  _223
REMARK   91  A    between atoms: _223  and  _224
REMARK   92  A    between atoms: _224  and  _225
REMARK   93  A    between atoms: _228  and  _230
REMARK   94  A    between atoms: _230  and  _231
REMARK   95  A    between atoms: _230  and  _233
REMARK   96  A    between atoms: _233  and  _234
REMARK   97  A    between atoms: _234  and  _235
REMARK   98  A    between atoms: _240  and  _242
REMARK   99  A    between atoms: _242  and  _243
REMARK  100  A    between atoms: _242  and  _245
REMARK  101  A    between atoms: _245  and  _246
REMARK  102  A    between atoms: _246  and  _247
REMARK  103  A    between atoms: _247  and  _248
REMARK  104  A    between atoms: _248  and  _249
REMARK  105  A    between atoms: _253  and  _255
REMARK  106  A    between atoms: _255  and  _256
REMARK  107  A    between atoms: _259  and  _261
REMARK  108  A    between atoms: _261  and  _262
REMARK  109  A    between atoms: _264  and  _266
REMARK  110  A    between atoms: _266  and  _267
REMARK  111  A    between atoms: _266  and  _269
REMARK  112  A    between atoms: _269  and  _270
REMARK  113  A    between atoms: _275  and  _277
REMARK  114  A    between atoms: _277  and  _278
REMARK  115  A    between atoms: _277  and  _280
REMARK  116  A    between atoms: _280  and  _281
REMARK  117  A    between atoms: _281  and  _282
REMARK  118  A    between atoms: _285  and  _287
REMARK  119  A    between atoms: _287  and  _288
REMARK  120  A    between atoms: _287  and  _290
REMARK  121  A    between atoms: _290  and  _291
REMARK  122  A    between atoms: _291  and  _292
REMARK  123  A    between atoms: _297  and  _299
REMARK  124  A    between atoms: _299  and  _300
REMARK  125  A    between atoms: _299  and  _302
REMARK  126  A    between atoms: _302  and  _303
REMARK  127  A    between atoms: _305  and  _307
REMARK  128  A    between atoms: _307  and  _308
REMARK  129  A    between atoms: _307  and  _310
REMARK  130  A    between atoms: _310  and  _311
REMARK  131  A    between atoms: _317  and  _319
REMARK  132  A    between atoms: _319  and  _320
REMARK  133  A    between atoms: _319  and  _322
REMARK  134  A    between atoms: _325  and  _327
REMARK  135  A    between atoms: _327  and  _328
REMARK  136  A    between atoms: _327  and  _330
REMARK  137  A    between atoms: _330  and  _331
REMARK  138  A    between atoms: _334  and  _336
REMARK  139  A    between atoms: _336  and  _337
REMARK  140  A    between atoms: _336  and  _339
REMARK  141  A    between atoms: _339  and  _340
REMARK  142  A    between atoms: _343  and  _345
REMARK  143  A    between atoms: _345  and  _346
REMARK  144  A    between atoms: _345  and  _348
REMARK  145  A    between atoms: _348  and  _349
REMARK  146  A    between atoms: _352  and  _354
REMARK  147  A    between atoms: _354  and  _355
REMARK  148  A    between atoms: _354  and  _357
REMARK  149  A    between atoms: _357  and  _358
REMARK  150  A    between atoms: _361  and  _363
REMARK  151  A    between atoms: _363  and  _364
REMARK  152  A    between atoms: _363  and  _366
REMARK  153  A    between atoms: _366  and  _367
REMARK  154  A    between atoms: _372  and  _373
REMARK  155  A    between atoms: _375  and  _377
REMARK  156  A    between atoms: _377  and  _378
REMARK  157  A    between atoms: _377  and  _380
REMARK  158  A    between atoms: _380  and  _381
REMARK  159  A    between atoms: _386  and  _387
REMARK  160  A    between atoms: _389  and  _391
REMARK  161  A    between atoms: _391  and  _392
REMARK  162  A    between atoms: _391  and  _394
REMARK  163  A    between atoms: _394  and  _395
REMARK  164  A    between atoms: _398  and  _400
REMARK  165  A    between atoms: _400  and  _401
REMARK  166  A    between atoms: _400  and  _403
REMARK  167  A    between atoms: _403  and  _404
REMARK  168  A    between atoms: _404  and  _405
REMARK  169  A    between atoms: _410  and  _412
REMARK  170  A    between atoms: _412  and  _413
REMARK  171  A    between atoms: _412  and  _415
REMARK  172  A    between atoms: _418  and  _420
REMARK  173  A    between atoms: _420  and  _421
REMARK  174  A    between atoms: _420  and  _423
REMARK  175  A    between atoms: _423  and  _424
REMARK  176  A    between atoms: _427  and  _429
REMARK  177  A    between atoms: _429  and  _430
REMARK  178  A    between atoms: _429  and  _432
REMARK  179  A    between atoms: _432  and  _433
REMARK  180  A    between atoms: _435  and  _437
REMARK  181  A    between atoms: _437  and  _438
REMARK  182  A    between atoms: _440  and  _442
REMARK  183  A    between atoms: _442  and  _443
REMARK  184  A    between atoms: _442  and  _445
REMARK  185  A    between atoms: _445  and  _446
REMARK  186  A    between atoms: _446  and  _744
REMARK  187  A    between atoms: _447  and  _449
REMARK  188  A    between atoms: _449  and  _450
REMARK  189  A    between atoms: _449  and  _452
REMARK  190  A    between atoms: _452  and  _453
REMARK  191  A    between atoms: _458  and  _459
REMARK  192  A    between atoms: _461  and  _463
REMARK  193  A    between atoms: _463  and  _464
REMARK  194  A    between atoms: _463  and  _466
REMARK  195  A    between atoms: _466  and  _467
REMARK  196  A    between atoms: _467  and  _468
REMARK  197  A    between atoms: _473  and  _475
REMARK  198  A    between atoms: _475  and  _476
REMARK  199  A    between atoms: _475  and  _478
REMARK  200  A    between atoms: _478  and  _479
REMARK  201  A    between atoms: _479  and  _480
REMARK  202  A    between atoms: _485  and  _487
REMARK  203  A    between atoms: _487  and  _488
REMARK  204  A    between atoms: _487  and  _490
REMARK  205  A    between atoms: _490  and  _491
REMARK  206  A    between atoms: _496  and  _497
REMARK  207  A    between atoms: _499  and  _501
REMARK  208  A    between atoms: _501  and  _502
REMARK  209  A    between atoms: _505  and  _507
REMARK  210  A    between atoms: _507  and  _508
REMARK  211  A    between atoms: _507  and  _510
REMARK  212  A    between atoms: _510  and  _511
REMARK  213  A    between atoms: _516  and  _517
REMARK  214  A    between atoms: _519  and  _521
REMARK  215  A    between atoms: _521  and  _522
REMARK  216  A    between atoms: _521  and  _524
REMARK  217  A    between atoms: _524  and  _525
REMARK  218  A    between atoms: _530  and  _531
REMARK  219  A    between atoms: _533  and  _535
REMARK  220  A    between atoms: _535  and  _536
REMARK  221  A    between atoms: _535  and  _538
REMARK  222  A    between atoms: _538  and  _539
REMARK  223  A    between atoms: _542  and  _544
REMARK  224  A    between atoms: _544  and  _545
REMARK  225  A    between atoms: _544  and  _547
REMARK  226  A    between atoms: _547  and  _548
REMARK  227  A    between atoms: _558  and  _560
REMARK  228  A    between atoms: _560  and  _561
REMARK  229  A    between atoms: _564  and  _566
REMARK  230  A    between atoms: _566  and  _567
REMARK  231  A    between atoms: _570  and  _572
REMARK  232  A    between atoms: _572  and  _573
REMARK  233  A    between atoms: _572  and  _575
REMARK  234  A    between atoms: _575  and  _576
REMARK  235  A    between atoms: _579  and  _581
REMARK  236  A    between atoms: _581  and  _582
REMARK  237  A    between atoms: _581  and  _584
REMARK  238  A    between atoms: _584  and  _585
REMARK  239  A    between atoms: _588  and  _590
REMARK  240  A    between atoms: _590  and  _591
REMARK  241  A    between atoms: _590  and  _593
REMARK  242  A    between atoms: _593  and  _594
REMARK  243  A    between atoms: _597  and  _599
REMARK  244  A    between atoms: _599  and  _600
REMARK  245  A    between atoms: _599  and  _602
REMARK  246  A    between atoms: _602  and  _603
REMARK  247  A    between atoms: _603  and  _604
REMARK  248  A    between atoms: _604  and  _605
REMARK  249  A    between atoms: _605  and  _606
REMARK  250  A    between atoms: _610  and  _612
REMARK  251  A    between atoms: _612  and  _613
REMARK  252  A    between atoms: _612  and  _615
REMARK  253  A    between atoms: _615  and  _616
REMARK  254  A    between atoms: _621  and  _623
REMARK  255  A    between atoms: _623  and  _624
REMARK  256  A    between atoms: _623  and  _626
REMARK  257  A    between atoms: _626  and  _627
REMARK  258  A    between atoms: _627  and  _628
REMARK  259  A    between atoms: _628  and  _629
REMARK  260  A    between atoms: _629  and  _630
REMARK  261  A    between atoms: _634  and  _636
REMARK  262  A    between atoms: _636  and  _637
REMARK  263  A    between atoms: _636  and  _639
REMARK  264  A    between atoms: _639  and  _640
REMARK  265  A    between atoms: _650  and  _652
REMARK  266  A    between atoms: _652  and  _653
REMARK  267  A    between atoms: _656  and  _658
REMARK  268  A    between atoms: _658  and  _659
REMARK  269  A    between atoms: _661  and  _663
REMARK  270  A    between atoms: _663  and  _664
REMARK  271  A    between atoms: _667  and  _669
REMARK  272  A    between atoms: _669  and  _670
REMARK  273  A    between atoms: _673  and  _675
REMARK  274  A    between atoms: _675  and  _676
REMARK  275  A    between atoms: _675  and  _678
REMARK  276  A    between atoms: _678  and  _679
REMARK  277  A    between atoms: _684  and  _685
REMARK  278  A    between atoms: _687  and  _689
REMARK  279  A    between atoms: _689  and  _690
REMARK  280  A    between atoms: _689  and  _692
REMARK  281  A    between atoms: _692  and  _693
REMARK  282  A    between atoms: _698  and  _699
REMARK  283  A    between atoms: _701  and  _703
REMARK  284  A    between atoms: _703  and  _704
REMARK  285  A    between atoms: _703  and  _706
REMARK  286  A    between atoms: _706  and  _707
REMARK  287  A    between atoms: _712  and  _713
REMARK  288  A    between atoms: _715  and  _717
REMARK  289  A    between atoms: _717  and  _718
REMARK  290  A    between atoms: _717  and  _720
REMARK  291  A    between atoms: _720  and  _721
REMARK  292  A    between atoms: _724  and  _726
REMARK  293  A    between atoms: _726  and  _727
REMARK  294  A    between atoms: _729  and  _731
REMARK  295  A    between atoms: _731  and  _732
REMARK  296  A    between atoms: _731  and  _734
REMARK  297  A    between atoms: _734  and  _735
REMARK  298  A    between atoms: _738  and  _740
REMARK  299  A    between atoms: _740  and  _741
REMARK  300  A    between atoms: _740  and  _743
REMARK  301  A    between atoms: _743  and  _744
REMARK  302  A    between atoms: _745  and  _747
REMARK  303  A    between atoms: _747  and  _748
REMARK  304  A    between atoms: _747  and  _750
REMARK  305  A    between atoms: _753  and  _755
REMARK  306  A    between atoms: _755  and  _756
REMARK  307  A    between atoms: _755  and  _758
REMARK  308  A    between atoms: _758  and  _759
REMARK  309  A    between atoms: _759  and  _760
REMARK  310  A    between atoms: _763  and  _765
REMARK  311  A    between atoms: _765  and  _766
REMARK  312  A    between atoms: _765  and  _768
REMARK  313  A    between atoms: _768  and  _769
REMARK  314  A    between atoms: _779  and  _781
REMARK  315  A    between atoms: _781  and  _782
REMARK  316  A    between atoms: _781  and  _784
REMARK  317  A    between atoms: _784  and  _785
REMARK  318  A    between atoms: _788  and  _790
REMARK  319  A    between atoms: _790  and  _791
REMARK  320  A    between atoms: _790  and  _793
REMARK  321  A    between atoms: _793  and  _794
REMARK  322  A    between atoms: _799  and  _800
REMARK                            x       y       z     vdW  Elec       q    Type
REMARK                         _______ _______ _______ _____ _____    ______ ____
ROOT
ATOM      1  O   HOH     1      54.689  63.444   9.976  0.00  0.00    +0.000 OA
ENDROOT
TORSDOF 0
REMARK  Name = ../refined-set-2016/1fzk/1fzk_pocket.pdb
REMARK  322 active torsions:
REMARK  status: ('A' for Active; 'I' for Inactive)
REMARK    1  A    between atoms: _1  and  _3
REMARK    2  A    between atoms: _3  and  _4
REMARK    3  A    between atoms: _3  and  _6
REMARK    4  A    between atoms: _6  and  _7
REMARK    5  A    between atoms: _10  and  _12
REMARK    6  A    between atoms: _12  and  _13
REMARK    7  A    between atoms: _12  and  _15
REMARK    8  A    between atoms: _15  and  _16
REMARK    9  A    between atoms: _16  and  _17
REMARK   10  A    between atoms: _17  and  _18
REMARK   11  A    between atoms: _27  and  _29
REMARK   12  A    between atoms: _29  and  _30
REMARK   13  A    between atoms: _29  and  _32
REMARK   14  A    between atoms: _32  and  _33
REMARK   15  A    between atoms: _38  and  _39
REMARK   16  A    between atoms: _41  and  _43
REMARK   17  A    between atoms: _43  and  _44
REMARK   18  A    between atoms: _43  and  _46
REMARK   19  A    between atoms: _46  and  _47
REMARK   20  A    between atoms: _53  and  _55
REMARK   21  A    between atoms: _55  and  _56
REMARK   22  A    between atoms: _55  and  _58
REMARK   23  A    between atoms: _61  and  _63
REMARK   24  A    between atoms: _63  and  _64
REMARK   25  A    between atoms: _63  and  _66
REMARK   26  A    between atoms: _66  and  _67
REMARK   27  A    between atoms: _70  and  _72
REMARK   28  A    between atoms: _72  and  _73
REMARK   29  A    between atoms: _72  and  _75
REMARK   30  A    between atoms: _75  and  _76
REMARK   31  A    between atoms: _81  and  _82
REMARK   32  A    between atoms: _84  and  _86
REMARK   33  A    between atoms: _86  and  _87
REMARK   34  A    between atoms: _86  and  _89
REMARK   35  A    between atoms: _89  and  _90
REMARK   36  A    between atoms: _90  and  _91
REMARK   37  A    between atoms: _93  and  _95
REMARK   38  A    between atoms: _95  and  _96
REMARK   39  A    between atoms: _95  and  _98
REMARK   40  A    between atoms: _98  and  _99
REMARK   41  A    between atoms: _99  and  _100
REMARK   42  A    between atoms: _103  and  _105
REMARK   43  A    between atoms: _105  and  _106
REMARK   44  A    between atoms: _105  and  _108
REMARK   45  A    between atoms: _111  and  _113
REMARK   46  A    between atoms: _113  and  _114
REMARK   47  A    between atoms: _116  and  _118
REMARK   48  A    between atoms: _118  and  _119
REMARK   49  A    between atoms: _118  and  _121
REMARK   50  A    between atoms: _124  and  _126
REMARK   51  A    between atoms: _126  and  _127
REMARK   52  A    between atoms: _126  and  _129
REMARK   53  A    between atoms: _129  and  _130
REMARK   54  A    between atoms: _136  and  _138
REMARK   55  A    between atoms: _138  and  _139
REMARK   56  A    between atoms: _138  and  _141
REMARK   57  A    between atoms: _144  and  _146
REMARK   58  A    between atoms: _146  and  _147
REMARK   59  A    between atoms: _146  and  _149
REMARK   60  A    between atoms: _149  and  _150
REMARK   61  A    between atoms: _155  and  _156
REMARK   62  A    between atoms: _158  and  _160
REMARK   63  A    between atoms: _160  and  _161
REMARK   64  A    between atoms: _160  and  _163
REMARK   65  A    between atoms: _163  and  _164
REMARK   66  A    between atoms: _164  and  _165
REMARK   67  A    between atoms: _167  and  _169
REMARK   68  A    between atoms: _169  and  _170
REMARK   69  A    between atoms: _169  and  _172
REMARK   70  A    between atoms: _172  and  _173
REMARK   71  A    between atoms: _173  and  _174
REMARK   72  A    between atoms: _177  and  _179
REMARK   73  A    between atoms: _179  and  _180
REMARK   74  A    between atoms: _179  and  _182
REMARK   75  A    between atoms: _182  and  _183
REMARK   76  A    between atoms: _183  and  _184
REMARK   77  A    between atoms: _187  and  _189
REMARK   78  A    between atoms: _189  and  _190
REMARK   79  A    between atoms: _189  and  _192
REMARK   80  A    between atoms: _192  and  _193
REMARK   81  A    between atoms: _198  and  _199
REMARK   82  A    between atoms: _201  and  _203
REMARK   83  A    between atoms: _203  and  _204
REMARK   84  A    between atoms: _203  and  _206
REMARK   85  A    between atoms: _206  and  _207
REMARK   86  A    between atoms: _207  and  _208
REMARK   87  A    between atoms: _208  and  _209
REMARK   88  A    between atoms: _218  and  _220
REMARK   89  A    between atoms: _220  and  _221
REMARK   90  A    between atoms: _220  and  _223
REMARK   91  A    between atoms: _223  and  _224
REMARK   92  A    between atoms: _224  and  _225
REMARK   93  A    between atoms: _228  and  _230
REMARK   94  A    between atoms: _230  and  _231
REMARK   95  A    between atoms: _230  and  _233
REMARK   96  A    between atoms: _233  and  _234
REMARK   97  A    between atoms: _234  and  _235
REMARK   98  A    between atoms: _240  and  _242
REMARK   99  A    between atoms: _242  and  _243
REMARK  100  A    between atoms: _242  and  _245
REMARK  101  A    between atoms: _245  and  _246
REMARK  102  A    between atoms: _246  and  _247
REMARK  103  A    between atoms: _247  and  _248
REMARK  104  A    between atoms: _248  and  _249
REMARK  105  A    between atoms: _253  and  _255
REMARK  106  A    between atoms: _255  and  _256
REMARK  107  A    between atoms: _259  and  _261
REMARK  108  A    between atoms: _261  and  _262
REMARK  109  A    between atoms: _264  and  _266
REMARK  110  A    between atoms: _266  and  _267
REMARK  111  A    between atoms: _266  and  _269
REMARK  112  A    between atoms: _269  and  _270
REMARK  113  A    between atoms: _275  and  _277
REMARK  114  A    between atoms: _277  and  _278
REMARK  115  A    between atoms: _277  and  _280
REMARK  116  A    between atoms: _280  and  _281
REMARK  117  A    between atoms: _281  and  _282
REMARK  118  A    between atoms: _285  and  _287
REMARK  119  A    between atoms: _287  and  _288
REMARK  120  A    between atoms: _287  and  _290
REMARK  121  A    between atoms: _290  and  _291
REMARK  122  A    between atoms: _291  and  _292
REMARK  123  A    between atoms: _297  and  _299
REMARK  124  A    between atoms: _299  and  _300
REMARK  125  A    between atoms: _299  and  _302
REMARK  126  A    between atoms: _302  and  _303
REMARK  127  A    between atoms: _305  and  _307
REMARK  128  A    between atoms: _307  and  _308
REMARK  129  A    between atoms: _307  and  _310
REMARK  130  A    between atoms: _310  and  _311
REMARK  131  A    between atoms: _317  and  _319
REMARK  132  A    between atoms: _319  and  _320
REMARK  133  A    between atoms: _319  and  _322
REMARK  134  A    between atoms: _325  and  _327
REMARK  135  A    between atoms: _327  and  _328
REMARK  136  A    between atoms: _327  and  _330
REMARK  137  A    between atoms: _330  and  _331
REMARK  138  A    between atoms: _334  and  _336
REMARK  139  A    between atoms: _336  and  _337
REMARK  140  A    between atoms: _336  and  _339
REMARK  141  A    between atoms: _339  and  _340
REMARK  142  A    between atoms: _343  and  _345
REMARK  143  A    between atoms: _345  and  _346
REMARK  144  A    between atoms: _345  and  _348
REMARK  145  A    between atoms: _348  and  _349
REMARK  146  A    between atoms: _352  and  _354
REMARK  147  A    between atoms: _354  and  _355
REMARK  148  A    between atoms: _354  and  _357
REMARK  149  A    between atoms: _357  and  _358
REMARK  150  A    between atoms: _361  and  _363
REMARK  151  A    between atoms: _363  and  _364
REMARK  152  A    between atoms: _363  and  _366
REMARK  153  A    between atoms: _366  and  _367
REMARK  154  A    between atoms: _372  and  _373
REMARK  155  A    between atoms: _375  and  _377
REMARK  156  A    between atoms: _377  and  _378
REMARK  157  A    between atoms: _377  and  _380
REMARK  158  A    between atoms: _380  and  _381
REMARK  159  A    between atoms: _386  and  _387
REMARK  160  A    between atoms: _389  and  _391
REMARK  161  A    between atoms: _391  and  _392
REMARK  162  A    between atoms: _391  and  _394
REMARK  163  A    between atoms: _394  and  _395
REMARK  164  A    between atoms: _398  and  _400
REMARK  165  A    between atoms: _400  and  _401
REMARK  166  A    between atoms: _400  and  _403
REMARK  167  A    between atoms: _403  and  _404
REMARK  168  A    between atoms: _404  and  _405
REMARK  169  A    between atoms: _410  and  _412
REMARK  170  A    between atoms: _412  and  _413
REMARK  171  A    between atoms: _412  and  _415
REMARK  172  A    between atoms: _418  and  _420
REMARK  173  A    between atoms: _420  and  _421
REMARK  174  A    between atoms: _420  and  _423
REMARK  175  A    between atoms: _423  and  _424
REMARK  176  A    between atoms: _427  and  _429
REMARK  177  A    between atoms: _429  and  _430
REMARK  178  A    between atoms: _429  and  _432
REMARK  179  A    between atoms: _432  and  _433
REMARK  180  A    between atoms: _435  and  _437
REMARK  181  A    between atoms: _437  and  _438
REMARK  182  A    between atoms: _440  and  _442
REMARK  183  A    between atoms: _442  and  _443
REMARK  184  A    between atoms: _442  and  _445
REMARK  185  A    between atoms: _445  and  _446
REMARK  186  A    between atoms: _446  and  _744
REMARK  187  A    between atoms: _447  and  _449
REMARK  188  A    between atoms: _449  and  _450
REMARK  189  A    between atoms: _449  and  _452
REMARK  190  A    between atoms: _452  and  _453
REMARK  191  A    between atoms: _458  and  _459
REMARK  192  A    between atoms: _461  and  _463
REMARK  193  A    between atoms: _463  and  _464
REMARK  194  A    between atoms: _463  and  _466
REMARK  195  A    between atoms: _466  and  _467
REMARK  196  A    between atoms: _467  and  _468
REMARK  197  A    between atoms: _473  and  _475
REMARK  198  A    between atoms: _475  and  _476
REMARK  199  A    between atoms: _475  and  _478
REMARK  200  A    between atoms: _478  and  _479
REMARK  201  A    between atoms: _479  and  _480
REMARK  202  A    between atoms: _485  and  _487
REMARK  203  A    between atoms: _487  and  _488
REMARK  204  A    between atoms: _487  and  _490
REMARK  205  A    between atoms: _490  and  _491
REMARK  206  A    between atoms: _496  and  _497
REMARK  207  A    between atoms: _499  and  _501
REMARK  208  A    between atoms: _501  and  _502
REMARK  209  A    between atoms: _505  and  _507
REMARK  210  A    between atoms: _507  and  _508
REMARK  211  A    between atoms: _507  and  _510
REMARK  212  A    between atoms: _510  and  _511
REMARK  213  A    between atoms: _516  and  _517
REMARK  214  A    between atoms: _519  and  _521
REMARK  215  A    between atoms: _521  and  _522
REMARK  216  A    between atoms: _521  and  _524
REMARK  217  A    between atoms: _524  and  _525
REMARK  218  A    between atoms: _530  and  _531
REMARK  219  A    between atoms: _533  and  _535
REMARK  220  A    between atoms: _535  and  _536
REMARK  221  A    between atoms: _535  and  _538
REMARK  222  A    between atoms: _538  and  _539
REMARK  223  A    between atoms: _542  and  _544
REMARK  224  A    between atoms: _544  and  _545
REMARK  225  A    between atoms: _544  and  _547
REMARK  226  A    between atoms: _547  and  _548
REMARK  227  A    between atoms: _558  and  _560
REMARK  228  A    between atoms: _560  and  _561
REMARK  229  A    between atoms: _564  and  _566
REMARK  230  A    between atoms: _566  and  _567
REMARK  231  A    between atoms: _570  and  _572
REMARK  232  A    between atoms: _572  and  _573
REMARK  233  A    between atoms: _572  and  _575
REMARK  234  A    between atoms: _575  and  _576
REMARK  235  A    between atoms: _579  and  _581
REMARK  236  A    between atoms: _581  and  _582
REMARK  237  A    between atoms: _581  and  _584
REMARK  238  A    between atoms: _584  and  _585
REMARK  239  A    between atoms: _588  and  _590
REMARK  240  A    between atoms: _590  and  _591
REMARK  241  A    between atoms: _590  and  _593
REMARK  242  A    between atoms: _593  and  _594
REMARK  243  A    between atoms: _597  and  _599
REMARK  244  A    between atoms: _599  and  _600
REMARK  245  A    between atoms: _599  and  _602
REMARK  246  A    between atoms: _602  and  _603
REMARK  247  A    between atoms: _603  and  _604
REMARK  248  A    between atoms: _604  and  _605
REMARK  249  A    between atoms: _605  and  _606
REMARK  250  A    between atoms: _610  and  _612
REMARK  251  A    between atoms: _612  and  _613
REMARK  252  A    between atoms: _612  and  _615
REMARK  253  A    between atoms: _615  and  _616
REMARK  254  A    between atoms: _621  and  _623
REMARK  255  A    between atoms: _623  and  _624
REMARK  256  A    between atoms: _623  and  _626
REMARK  257  A    between atoms: _626  and  _627
REMARK  258  A    between atoms: _627  and  _628
REMARK  259  A    between atoms: _628  and  _629
REMARK  260  A    between atoms: _629  and  _630
REMARK  261  A    between atoms: _634  and  _636
REMARK  262  A    between atoms: _636  and  _637
REMARK  263  A    between atoms: _636  and  _639
REMARK  264  A    between atoms: _639  and  _640
REMARK  265  A    between atoms: _650  and  _652
REMARK  266  A    between atoms: _652  and  _653
REMARK  267  A    between atoms: _656  and  _658
REMARK  268  A    between atoms: _658  and  _659
REMARK  269  A    between atoms: _661  and  _663
REMARK  270  A    between atoms: _663  and  _664
REMARK  271  A    between atoms: _667  and  _669
REMARK  272  A    between atoms: _669  and  _670
REMARK  273  A    between atoms: _673  and  _675
REMARK  274  A    between atoms: _675  and  _676
REMARK  275  A    between atoms: _675  and  _678
REMARK  276  A    between atoms: _678  and  _679
REMARK  277  A    between atoms: _684  and  _685
REMARK  278  A    between atoms: _687  and  _689
REMARK  279  A    between atoms: _689  and  _690
REMARK  280  A    between atoms: _689  and  _692
REMARK  281  A    between atoms: _692  and  _693
REMARK  282  A    between atoms: _698  and  _699
REMARK  283  A    between atoms: _701  and  _703
REMARK  284  A    between atoms: _703  and  _704
REMARK  285  A    between atoms: _703  and  _706
REMARK  286  A    between atoms: _706  and  _707
REMARK  287  A    between atoms: _712  and  _713
REMARK  288  A    between atoms: _715  and  _717
REMARK  289  A    between atoms: _717  and  _718
REMARK  290  A    between atoms: _717  and  _720
REMARK  291  A    between atoms: _720  and  _721
REMARK  292  A    between atoms: _724  and  _726
REMARK  293  A    between atoms: _726  and  _727
REMARK  294  A    between atoms: _729  and  _731
REMARK  295  A    between atoms: _731  and  _732
REMARK  296  A    between atoms: _731  and  _734
REMARK  297  A    between atoms: _734  and  _735
REMARK  298  A    between atoms: _738  and  _740
REMARK  299  A    between atoms: _740  and  _741
REMARK  300  A    between atoms: _740  and  _743
REMARK  301  A    between atoms: _743  and  _744
REMARK  302  A    between atoms: _745  and  _747
REMARK  303  A    between atoms: _747  and  _748
REMARK  304  A    between atoms: _747  and  _750
REMARK  305  A    between atoms: _753  and  _755
REMARK  306  A    between atoms: _755  and  _756
REMARK  307  A    between atoms: _755  and  _758
REMARK  308  A    between atoms: _758  and  _759
REMARK  309  A    between atoms: _759  and  _760
REMARK  310  A    between atoms: _763  and  _765
REMARK  311  A    between atoms: _765  and  _766
REMARK  312  A    between atoms: _765  and  _768
REMARK  313  A    between atoms: _768  and  _769
REMARK  314  A    between atoms: _779  and  _781
REMARK  315  A    between atoms: _781  and  _782
REMARK  316  A    between atoms: _781  and  _784
REMARK  317  A    between atoms: _784  and  _785
REMARK  318  A    between atoms: _788  and  _790
REMARK  319  A    between atoms: _790  and  _791
REMARK  320  A    between atoms: _790  and  _793
REMARK  321  A    between atoms: _793  and  _794
REMARK  322  A    between atoms: _799  and  _800
REMARK                            x       y       z     vdW  Elec       q    Type
REMARK                         _______ _______ _______ _____ _____    ______ ____
ROOT
ATOM      1  O   HOH     1      46.005  63.339   1.721  0.00  0.00    +0.000 OA
ENDROOT
TORSDOF 0
REMARK  Name = ../refined-set-2016/1fzk/1fzk_pocket.pdb
REMARK  322 active torsions:
REMARK  status: ('A' for Active; 'I' for Inactive)
REMARK    1  A    between atoms: _1  and  _3
REMARK    2  A    between atoms: _3  and  _4
REMARK    3  A    between atoms: _3  and  _6
REMARK    4  A    between atoms: _6  and  _7
REMARK    5  A    between atoms: _10  and  _12
REMARK    6  A    between atoms: _12  and  _13
REMARK    7  A    between atoms: _12  and  _15
REMARK    8  A    between atoms: _15  and  _16
REMARK    9  A    between atoms: _16  and  _17
REMARK   10  A    between atoms: _17  and  _18
REMARK   11  A    between atoms: _27  and  _29
REMARK   12  A    between atoms: _29  and  _30
REMARK   13  A    between atoms: _29  and  _32
REMARK   14  A    between atoms: _32  and  _33
REMARK   15  A    between atoms: _38  and  _39
REMARK   16  A    between atoms: _41  and  _43
REMARK   17  A    between atoms: _43  and  _44
REMARK   18  A    between atoms: _43  and  _46
REMARK   19  A    between atoms: _46  and  _47
REMARK   20  A    between atoms: _53  and  _55
REMARK   21  A    between atoms: _55  and  _56
REMARK   22  A    between atoms: _55  and  _58
REMARK   23  A    between atoms: _61  and  _63
REMARK   24  A    between atoms: _63  and  _64
REMARK   25  A    between atoms: _63  and  _66
REMARK   26  A    between atoms: _66  and  _67
REMARK   27  A    between atoms: _70  and  _72
REMARK   28  A    between atoms: _72  and  _73
REMARK   29  A    between atoms: _72  and  _75
REMARK   30  A    between atoms: _75  and  _76
REMARK   31  A    between atoms: _81  and  _82
REMARK   32  A    between atoms: _84  and  _86
REMARK   33  A    between atoms: _86  and  _87
REMARK   34  A    between atoms: _86  and  _89
REMARK   35  A    between atoms: _89  and  _90
REMARK   36  A    between atoms: _90  and  _91
REMARK   37  A    between atoms: _93  and  _95
REMARK   38  A    between atoms: _95  and  _96
REMARK   39  A    between atoms: _95  and  _98
REMARK   40  A    between atoms: _98  and  _99
REMARK   41  A    between atoms: _99  and  _100
REMARK   42  A    between atoms: _103  and  _105
REMARK   43  A    between atoms: _105  and  _106
REMARK   44  A    between atoms: _105  and  _108
REMARK   45  A    between atoms: _111  and  _113
REMARK   46  A    between atoms: _113  and  _114
REMARK   47  A    between atoms: _116  and  _118
REMARK   48  A    between atoms: _118  and  _119
REMARK   49  A    between atoms: _118  and  _121
REMARK   50  A    between atoms: _124  and  _126
REMARK   51  A    between atoms: _126  and  _127
REMARK   52  A    between atoms: _126  and  _129
REMARK   53  A    between atoms: _129  and  _130
REMARK   54  A    between atoms: _136  and  _138
REMARK   55  A    between atoms: _138  and  _139
REMARK   56  A    between atoms: _138  and  _141
REMARK   57  A    between atoms: _144  and  _146
REMARK   58  A    between atoms: _146  and  _147
REMARK   59  A    between atoms: _146  and  _149
REMARK   60  A    between atoms: _149  and  _150
REMARK   61  A    between atoms: _155  and  _156
REMARK   62  A    between atoms: _158  and  _160
REMARK   63  A    between atoms: _160  and  _161
REMARK   64  A    between atoms: _160  and  _163
REMARK   65  A    between atoms: _163  and  _164
REMARK   66  A    between atoms: _164  and  _165
REMARK   67  A    between atoms: _167  and  _169
REMARK   68  A    between atoms: _169  and  _170
REMARK   69  A    between atoms: _169  and  _172
REMARK   70  A    between atoms: _172  and  _173
REMARK   71  A    between atoms: _173  and  _174
REMARK   72  A    between atoms: _177  and  _179
REMARK   73  A    between atoms: _179  and  _180
REMARK   74  A    between atoms: _179  and  _182
REMARK   75  A    between atoms: _182  and  _183
REMARK   76  A    between atoms: _183  and  _184
REMARK   77  A    between atoms: _187  and  _189
REMARK   78  A    between atoms: _189  and  _190
REMARK   79  A    between atoms: _189  and  _192
REMARK   80  A    between atoms: _192  and  _193
REMARK   81  A    between atoms: _198  and  _199
REMARK   82  A    between atoms: _201  and  _203
REMARK   83  A    between atoms: _203  and  _204
REMARK   84  A    between atoms: _203  and  _206
REMARK   85  A    between atoms: _206  and  _207
REMARK   86  A    between atoms: _207  and  _208
REMARK   87  A    between atoms: _208  and  _209
REMARK   88  A    between atoms: _218  and  _220
REMARK   89  A    between atoms: _220  and  _221
REMARK   90  A    between atoms: _220  and  _223
REMARK   91  A    between atoms: _223  and  _224
REMARK   92  A    between atoms: _224  and  _225
REMARK   93  A    between atoms: _228  and  _230
REMARK   94  A    between atoms: _230  and  _231
REMARK   95  A    between atoms: _230  and  _233
REMARK   96  A    between atoms: _233  and  _234
REMARK   97  A    between atoms: _234  and  _235
REMARK   98  A    between atoms: _240  and  _242
REMARK   99  A    between atoms: _242  and  _243
REMARK  100  A    between atoms: _242  and  _245
REMARK  101  A    between atoms: _245  and  _246
REMARK  102  A    between atoms: _246  and  _247
REMARK  103  A    between atoms: _247  and  _248
REMARK  104  A    between atoms: _248  and  _249
REMARK  105  A    between atoms: _253  and  _255
REMARK  106  A    between atoms: _255  and  _256
REMARK  107  A    between atoms: _259  and  _261
REMARK  108  A    between atoms: _261  and  _262
REMARK  109  A    between atoms: _264  and  _266
REMARK  110  A    between atoms: _266  and  _267
REMARK  111  A    between atoms: _266  and  _269
REMARK  112  A    between atoms: _269  and  _270
REMARK  113  A    between atoms: _275  and  _277
REMARK  114  A    between atoms: _277  and  _278
REMARK  115  A    between atoms: _277  and  _280
REMARK  116  A    between atoms: _280  and  _281
REMARK  117  A    between atoms: _281  and  _282
REMARK  118  A    between atoms: _285  and  _287
REMARK  119  A    between atoms: _287  and  _288
REMARK  120  A    between atoms: _287  and  _290
REMARK  121  A    between atoms: _290  and  _291
REMARK  122  A    between atoms: _291  and  _292
REMARK  123  A    between atoms: _297  and  _299
REMARK  124  A    between atoms: _299  and  _300
REMARK  125  A    between atoms: _299  and  _302
REMARK  126  A    between atoms: _302  and  _303
REMARK  127  A    between atoms: _305  and  _307
REMARK  128  A    between atoms: _307  and  _308
REMARK  129  A    between atoms: _307  and  _310
REMARK  130  A    between atoms: _310  and  _311
REMARK  131  A    between atoms: _317  and  _319
REMARK  132  A    between atoms: _319  and  _320
REMARK  133  A    between atoms: _319  and  _322
REMARK  134  A    between atoms: _325  and  _327
REMARK  135  A    between atoms: _327  and  _328
REMARK  136  A    between atoms: _327  and  _330
REMARK  137  A    between atoms: _330  and  _331
REMARK  138  A    between atoms: _334  and  _336
REMARK  139  A    between atoms: _336  and  _337
REMARK  140  A    between atoms: _336  and  _339
REMARK  141  A    between atoms: _339  and  _340
REMARK  142  A    between atoms: _343  and  _345
REMARK  143  A    between atoms: _345  and  _346
REMARK  144  A    between atoms: _345  and  _348
REMARK  145  A    between atoms: _348  and  _349
REMARK  146  A    between atoms: _352  and  _354
REMARK  147  A    between atoms: _354  and  _355
REMARK  148  A    between atoms: _354  and  _357
REMARK  149  A    between atoms: _357  and  _358
REMARK  150  A    between atoms: _361  and  _363
REMARK  151  A    between atoms: _363  and  _364
REMARK  152  A    between atoms: _363  and  _366
REMARK  153  A    between atoms: _366  and  _367
REMARK  154  A    between atoms: _372  and  _373
REMARK  155  A    between atoms: _375  and  _377
REMARK  156  A    between atoms: _377  and  _378
REMARK  157  A    between atoms: _377  and  _380
REMARK  158  A    between atoms: _380  and  _381
REMARK  159  A    between atoms: _386  and  _387
REMARK  160  A    between atoms: _389  and  _391
REMARK  161  A    between atoms: _391  and  _392
REMARK  162  A    between atoms: _391  and  _394
REMARK  163  A    between atoms: _394  and  _395
REMARK  164  A    between atoms: _398  and  _400
REMARK  165  A    between atoms: _400  and  _401
REMARK  166  A    between atoms: _400  and  _403
REMARK  167  A    between atoms: _403  and  _404
REMARK  168  A    between atoms: _404  and  _405
REMARK  169  A    between atoms: _410  and  _412
REMARK  170  A    between atoms: _412  and  _413
REMARK  171  A    between atoms: _412  and  _415
REMARK  172  A    between atoms: _418  and  _420
REMARK  173  A    between atoms: _420  and  _421
REMARK  174  A    between atoms: _420  and  _423
REMARK  175  A    between atoms: _423  and  _424
REMARK  176  A    between atoms: _427  and  _429
REMARK  177  A    between atoms: _429  and  _430
REMARK  178  A    between atoms: _429  and  _432
REMARK  179  A    between atoms: _432  and  _433
REMARK  180  A    between atoms: _435  and  _437
REMARK  181  A    between atoms: _437  and  _438
REMARK  182  A    between atoms: _440  and  _442
REMARK  183  A    between atoms: _442  and  _443
REMARK  184  A    between atoms: _442  and  _445
REMARK  185  A    between atoms: _445  and  _446
REMARK  186  A    between atoms: _446  and  _744
REMARK  187  A    between atoms: _447  and  _449
REMARK  188  A    between atoms: _449  and  _450
REMARK  189  A    between atoms: _449  and  _452
REMARK  190  A    between atoms: _452  and  _453
REMARK  191  A    between atoms: _458  and  _459
REMARK  192  A    between atoms: _461  and  _463
REMARK  193  A    between atoms: _463  and  _464
REMARK  194  A    between atoms: _463  and  _466
REMARK  195  A    between atoms: _466  and  _467
REMARK  196  A    between atoms: _467  and  _468
REMARK  197  A    between atoms: _473  and  _475
REMARK  198  A    between atoms: _475  and  _476
REMARK  199  A    between atoms: _475  and  _478
REMARK  200  A    between atoms: _478  and  _479
REMARK  201  A    between atoms: _479  and  _480
REMARK  202  A    between atoms: _485  and  _487
REMARK  203  A    between atoms: _487  and  _488
REMARK  204  A    between atoms: _487  and  _490
REMARK  205  A    between atoms: _490  and  _491
REMARK  206  A    between atoms: _496  and  _497
REMARK  207  A    between atoms: _499  and  _501
REMARK  208  A    between atoms: _501  and  _502
REMARK  209  A    between atoms: _505  and  _507
REMARK  210  A    between atoms: _507  and  _508
REMARK  211  A    between atoms: _507  and  _510
REMARK  212  A    between atoms: _510  and  _511
REMARK  213  A    between atoms: _516  and  _517
REMARK  214  A    between atoms: _519  and  _521
REMARK  215  A    between atoms: _521  and  _522
REMARK  216  A    between atoms: _521  and  _524
REMARK  217  A    between atoms: _524  and  _525
REMARK  218  A    between atoms: _530  and  _531
REMARK  219  A    between atoms: _533  and  _535
REMARK  220  A    between atoms: _535  and  _536
REMARK  221  A    between atoms: _535  and  _538
REMARK  222  A    between atoms: _538  and  _539
REMARK  223  A    between atoms: _542  and  _544
REMARK  224  A    between atoms: _544  and  _545
REMARK  225  A    between atoms: _544  and  _547
REMARK  226  A    between atoms: _547  and  _548
REMARK  227  A    between atoms: _558  and  _560
REMARK  228  A    between atoms: _560  and  _561
REMARK  229  A    between atoms: _564  and  _566
REMARK  230  A    between atoms: _566  and  _567
REMARK  231  A    between atoms: _570  and  _572
REMARK  232  A    between atoms: _572  and  _573
REMARK  233  A    between atoms: _572  and  _575
REMARK  234  A    between atoms: _575  and  _576
REMARK  235  A    between atoms: _579  and  _581
REMARK  236  A    between atoms: _581  and  _582
REMARK  237  A    between atoms: _581  and  _584
REMARK  238  A    between atoms: _584  and  _585
REMARK  239  A    between atoms: _588  and  _590
REMARK  240  A    between atoms: _590  and  _591
REMARK  241  A    between atoms: _590  and  _593
REMARK  242  A    between atoms: _593  and  _594
REMARK  243  A    between atoms: _597  and  _599
REMARK  244  A    between atoms: _599  and  _600
REMARK  245  A    between atoms: _599  and  _602
REMARK  246  A    between atoms: _602  and  _603
REMARK  247  A    between atoms: _603  and  _604
REMARK  248  A    between atoms: _604  and  _605
REMARK  249  A    between atoms: _605  and  _606
REMARK  250  A    between atoms: _610  and  _612
REMARK  251  A    between atoms: _612  and  _613
REMARK  252  A    between atoms: _612  and  _615
REMARK  253  A    between atoms: _615  and  _616
REMARK  254  A    between atoms: _621  and  _623
REMARK  255  A    between atoms: _623  and  _624
REMARK  256  A    between atoms: _623  and  _626
REMARK  257  A    between atoms: _626  and  _627
REMARK  258  A    between atoms: _627  and  _628
REMARK  259  A    between atoms: _628  and  _629
REMARK  260  A    between atoms: _629  and  _630
REMARK  261  A    between atoms: _634  and  _636
REMARK  262  A    between atoms: _636  and  _637
REMARK  263  A    between atoms: _636  and  _639
REMARK  264  A    between atoms: _639  and  _640
REMARK  265  A    between atoms: _650  and  _652
REMARK  266  A    between atoms: _652  and  _653
REMARK  267  A    between atoms: _656  and  _658
REMARK  268  A    between atoms: _658  and  _659
REMARK  269  A    between atoms: _661  and  _663
REMARK  270  A    between atoms: _663  and  _664
REMARK  271  A    between atoms: _667  and  _669
REMARK  272  A    between atoms: _669  and  _670
REMARK  273  A    between atoms: _673  and  _675
REMARK  274  A    between atoms: _675  and  _676
REMARK  275  A    between atoms: _675  and  _678
REMARK  276  A    between atoms: _678  and  _679
REMARK  277  A    between atoms: _684  and  _685
REMARK  278  A    between atoms: _687  and  _689
REMARK  279  A    between atoms: _689  and  _690
REMARK  280  A    between atoms: _689  and  _692
REMARK  281  A    between atoms: _692  and  _693
REMARK  282  A    between atoms: _698  and  _699
REMARK  283  A    between atoms: _701  and  _703
REMARK  284  A    between atoms: _703  and  _704
REMARK  285  A    between atoms: _703  and  _706
REMARK  286  A    between atoms: _706  and  _707
REMARK  287  A    between atoms: _712  and  _713
REMARK  288  A    between atoms: _715  and  _717
REMARK  289  A    between atoms: _717  and  _718
REMARK  290  A    between atoms: _717  and  _720
REMARK  291  A    between atoms: _720  and  _721
REMARK  292  A    between atoms: _724  and  _726
REMARK  293  A    between atoms: _726  and  _727
REMARK  294  A    between atoms: _729  and  _731
REMARK  295  A    between atoms: _731  and  _732
REMARK  296  A    between atoms: _731  and  _734
REMARK  297  A    between atoms: _734  and  _735
REMARK  298  A    between atoms: _738  and  _740
REMARK  299  A    between atoms: _740  and  _741
REMARK  300  A    between atoms: _740  and  _743
REMARK  301  A    between atoms: _743  and  _744
REMARK  302  A    between atoms: _745  and  _747
REMARK  303  A    between atoms: _747  and  _748
REMARK  304  A    between atoms: _747  and  _750
REMARK  305  A    between atoms: _753  and  _755
REMARK  306  A    between atoms: _755  and  _756
REMARK  307  A    between atoms: _755  and  _758
REMARK  308  A    between atoms: _758  and  _759
REMARK  309  A    between atoms: _759  and  _760
REMARK  310  A    between atoms: _763  and  _765
REMARK  311  A    between atoms: _765  and  _766
REMARK  312  A    between atoms: _765  and  _768
REMARK  313  A    between atoms: _768  and  _769
REMARK  314  A    between atoms: _779  and  _781
REMARK  315  A    between atoms: _781  and  _782
REMARK  316  A    between atoms: _781  and  _784
REMARK  317  A    between atoms: _784  and  _785
REMARK  318  A    between atoms: _788  and  _790
REMARK  319  A    between atoms: _790  and  _791
REMARK  320  A    between atoms: _790  and  _793
REMARK  321  A    between atoms: _793  and  _794
REMARK  322  A    between atoms: _799  and  _800
REMARK                            x       y       z     vdW  Elec       q    Type
REMARK                         _______ _______ _______ _____ _____    ______ ____
ROOT
ATOM      1  O   HOH     1      43.481  54.870  -0.788  0.00  0.00    +0.000 OA
ENDROOT
TORSDOF 0
REMARK  Name = ../refined-set-2016/1fzk/1fzk_pocket.pdb
REMARK  322 active torsions:
REMARK  status: ('A' for Active; 'I' for Inactive)
REMARK    1  A    between atoms: _1  and  _3
REMARK    2  A    between atoms: _3  and  _4
REMARK    3  A    between atoms: _3  and  _6
REMARK    4  A    between atoms: _6  and  _7
REMARK    5  A    between atoms: _10  and  _12
REMARK    6  A    between atoms: _12  and  _13
REMARK    7  A    between atoms: _12  and  _15
REMARK    8  A    between atoms: _15  and  _16
REMARK    9  A    between atoms: _16  and  _17
REMARK   10  A    between atoms: _17  and  _18
REMARK   11  A    between atoms: _27  and  _29
REMARK   12  A    between atoms: _29  and  _30
REMARK   13  A    between atoms: _29  and  _32
REMARK   14  A    between atoms: _32  and  _33
REMARK   15  A    between atoms: _38  and  _39
REMARK   16  A    between atoms: _41  and  _43
REMARK   17  A    between atoms: _43  and  _44
REMARK   18  A    between atoms: _43  and  _46
REMARK   19  A    between atoms: _46  and  _47
REMARK   20  A    between atoms: _53  and  _55
REMARK   21  A    between atoms: _55  and  _56
REMARK   22  A    between atoms: _55  and  _58
REMARK   23  A    between atoms: _61  and  _63
REMARK   24  A    between atoms: _63  and  _64
REMARK   25  A    between atoms: _63  and  _66
REMARK   26  A    between atoms: _66  and  _67
REMARK   27  A    between atoms: _70  and  _72
REMARK   28  A    between atoms: _72  and  _73
REMARK   29  A    between atoms: _72  and  _75
REMARK   30  A    between atoms: _75  and  _76
REMARK   31  A    between atoms: _81  and  _82
REMARK   32  A    between atoms: _84  and  _86
REMARK   33  A    between atoms: _86  and  _87
REMARK   34  A    between atoms: _86  and  _89
REMARK   35  A    between atoms: _89  and  _90
REMARK   36  A    between atoms: _90  and  _91
REMARK   37  A    between atoms: _93  and  _95
REMARK   38  A    between atoms: _95  and  _96
REMARK   39  A    between atoms: _95  and  _98
REMARK   40  A    between atoms: _98  and  _99
REMARK   41  A    between atoms: _99  and  _100
REMARK   42  A    between atoms: _103  and  _105
REMARK   43  A    between atoms: _105  and  _106
REMARK   44  A    between atoms: _105  and  _108
REMARK   45  A    between atoms: _111  and  _113
REMARK   46  A    between atoms: _113  and  _114
REMARK   47  A    between atoms: _116  and  _118
REMARK   48  A    between atoms: _118  and  _119
REMARK   49  A    between atoms: _118  and  _121
REMARK   50  A    between atoms: _124  and  _126
REMARK   51  A    between atoms: _126  and  _127
REMARK   52  A    between atoms: _126  and  _129
REMARK   53  A    between atoms: _129  and  _130
REMARK   54  A    between atoms: _136  and  _138
REMARK   55  A    between atoms: _138  and  _139
REMARK   56  A    between atoms: _138  and  _141
REMARK   57  A    between atoms: _144  and  _146
REMARK   58  A    between atoms: _146  and  _147
REMARK   59  A    between atoms: _146  and  _149
REMARK   60  A    between atoms: _149  and  _150
REMARK   61  A    between atoms: _155  and  _156
REMARK   62  A    between atoms: _158  and  _160
REMARK   63  A    between atoms: _160  and  _161
REMARK   64  A    between atoms: _160  and  _163
REMARK   65  A    between atoms: _163  and  _164
REMARK   66  A    between atoms: _164  and  _165
REMARK   67  A    between atoms: _167  and  _169
REMARK   68  A    between atoms: _169  and  _170
REMARK   69  A    between atoms: _169  and  _172
REMARK   70  A    between atoms: _172  and  _173
REMARK   71  A    between atoms: _173  and  _174
REMARK   72  A    between atoms: _177  and  _179
REMARK   73  A    between atoms: _179  and  _180
REMARK   74  A    between atoms: _179  and  _182
REMARK   75  A    between atoms: _182  and  _183
REMARK   76  A    between atoms: _183  and  _184
REMARK   77  A    between atoms: _187  and  _189
REMARK   78  A    between atoms: _189  and  _190
REMARK   79  A    between atoms: _189  and  _192
REMARK   80  A    between atoms: _192  and  _193
REMARK   81  A    between atoms: _198  and  _199
REMARK   82  A    between atoms: _201  and  _203
REMARK   83  A    between atoms: _203  and  _204
REMARK   84  A    between atoms: _203  and  _206
REMARK   85  A    between atoms: _206  and  _207
REMARK   86  A    between atoms: _207  and  _208
REMARK   87  A    between atoms: _208  and  _209
REMARK   88  A    between atoms: _218  and  _220
REMARK   89  A    between atoms: _220  and  _221
REMARK   90  A    between atoms: _220  and  _223
REMARK   91  A    between atoms: _223  and  _224
REMARK   92  A    between atoms: _224  and  _225
REMARK   93  A    between atoms: _228  and  _230
REMARK   94  A    between atoms: _230  and  _231
REMARK   95  A    between atoms: _230  and  _233
REMARK   96  A    between atoms: _233  and  _234
REMARK   97  A    between atoms: _234  and  _235
REMARK   98  A    between atoms: _240  and  _242
REMARK   99  A    between atoms: _242  and  _243
REMARK  100  A    between atoms: _242  and  _245
REMARK  101  A    between atoms: _245  and  _246
REMARK  102  A    between atoms: _246  and  _247
REMARK  103  A    between atoms: _247  and  _248
REMARK  104  A    between atoms: _248  and  _249
REMARK  105  A    between atoms: _253  and  _255
REMARK  106  A    between atoms: _255  and  _256
REMARK  107  A    between atoms: _259  and  _261
REMARK  108  A    between atoms: _261  and  _262
REMARK  109  A    between atoms: _264  and  _266
REMARK  110  A    between atoms: _266  and  _267
REMARK  111  A    between atoms: _266  and  _269
REMARK  112  A    between atoms: _269  and  _270
REMARK  113  A    between atoms: _275  and  _277
REMARK  114  A    between atoms: _277  and  _278
REMARK  115  A    between atoms: _277  and  _280
REMARK  116  A    between atoms: _280  and  _281
REMARK  117  A    between atoms: _281  and  _282
REMARK  118  A    between atoms: _285  and  _287
REMARK  119  A    between atoms: _287  and  _288
REMARK  120  A    between atoms: _287  and  _290
REMARK  121  A    between atoms: _290  and  _291
REMARK  122  A    between atoms: _291  and  _292
REMARK  123  A    between atoms: _297  and  _299
REMARK  124  A    between atoms: _299  and  _300
REMARK  125  A    between atoms: _299  and  _302
REMARK  126  A    between atoms: _302  and  _303
REMARK  127  A    between atoms: _305  and  _307
REMARK  128  A    between atoms: _307  and  _308
REMARK  129  A    between atoms: _307  and  _310
REMARK  130  A    between atoms: _310  and  _311
REMARK  131  A    between atoms: _317  and  _319
REMARK  132  A    between atoms: _319  and  _320
REMARK  133  A    between atoms: _319  and  _322
REMARK  134  A    between atoms: _325  and  _327
REMARK  135  A    between atoms: _327  and  _328
REMARK  136  A    between atoms: _327  and  _330
REMARK  137  A    between atoms: _330  and  _331
REMARK  138  A    between atoms: _334  and  _336
REMARK  139  A    between atoms: _336  and  _337
REMARK  140  A    between atoms: _336  and  _339
REMARK  141  A    between atoms: _339  and  _340
REMARK  142  A    between atoms: _343  and  _345
REMARK  143  A    between atoms: _345  and  _346
REMARK  144  A    between atoms: _345  and  _348
REMARK  145  A    between atoms: _348  and  _349
REMARK  146  A    between atoms: _352  and  _354
REMARK  147  A    between atoms: _354  and  _355
REMARK  148  A    between atoms: _354  and  _357
REMARK  149  A    between atoms: _357  and  _358
REMARK  150  A    between atoms: _361  and  _363
REMARK  151  A    between atoms: _363  and  _364
REMARK  152  A    between atoms: _363  and  _366
REMARK  153  A    between atoms: _366  and  _367
REMARK  154  A    between atoms: _372  and  _373
REMARK  155  A    between atoms: _375  and  _377
REMARK  156  A    between atoms: _377  and  _378
REMARK  157  A    between atoms: _377  and  _380
REMARK  158  A    between atoms: _380  and  _381
REMARK  159  A    between atoms: _386  and  _387
REMARK  160  A    between atoms: _389  and  _391
REMARK  161  A    between atoms: _391  and  _392
REMARK  162  A    between atoms: _391  and  _394
REMARK  163  A    between atoms: _394  and  _395
REMARK  164  A    between atoms: _398  and  _400
REMARK  165  A    between atoms: _400  and  _401
REMARK  166  A    between atoms: _400  and  _403
REMARK  167  A    between atoms: _403  and  _404
REMARK  168  A    between atoms: _404  and  _405
REMARK  169  A    between atoms: _410  and  _412
REMARK  170  A    between atoms: _412  and  _413
REMARK  171  A    between atoms: _412  and  _415
REMARK  172  A    between atoms: _418  and  _420
REMARK  173  A    between atoms: _420  and  _421
REMARK  174  A    between atoms: _420  and  _423
REMARK  175  A    between atoms: _423  and  _424
REMARK  176  A    between atoms: _427  and  _429
REMARK  177  A    between atoms: _429  and  _430
REMARK  178  A    between atoms: _429  and  _432
REMARK  179  A    between atoms: _432  and  _433
REMARK  180  A    between atoms: _435  and  _437
REMARK  181  A    between atoms: _437  and  _438
REMARK  182  A    between atoms: _440  and  _442
REMARK  183  A    between atoms: _442  and  _443
REMARK  184  A    between atoms: _442  and  _445
REMARK  185  A    between atoms: _445  and  _446
REMARK  186  A    between atoms: _446  and  _744
REMARK  187  A    between atoms: _447  and  _449
REMARK  188  A    between atoms: _449  and  _450
REMARK  189  A    between atoms: _449  and  _452
REMARK  190  A    between atoms: _452  and  _453
REMARK  191  A    between atoms: _458  and  _459
REMARK  192  A    between atoms: _461  and  _463
REMARK  193  A    between atoms: _463  and  _464
REMARK  194  A    between atoms: _463  and  _466
REMARK  195  A    between atoms: _466  and  _467
REMARK  196  A    between atoms: _467  and  _468
REMARK  197  A    between atoms: _473  and  _475
REMARK  198  A    between atoms: _475  and  _476
REMARK  199  A    between atoms: _475  and  _478
REMARK  200  A    between atoms: _478  and  _479
REMARK  201  A    between atoms: _479  and  _480
REMARK  202  A    between atoms: _485  and  _487
REMARK  203  A    between atoms: _487  and  _488
REMARK  204  A    between atoms: _487  and  _490
REMARK  205  A    between atoms: _490  and  _491
REMARK  206  A    between atoms: _496  and  _497
REMARK  207  A    between atoms: _499  and  _501
REMARK  208  A    between atoms: _501  and  _502
REMARK  209  A    between atoms: _505  and  _507
REMARK  210  A    between atoms: _507  and  _508
REMARK  211  A    between atoms: _507  and  _510
REMARK  212  A    between atoms: _510  and  _511
REMARK  213  A    between atoms: _516  and  _517
REMARK  214  A    between atoms: _519  and  _521
REMARK  215  A    between atoms: _521  and  _522
REMARK  216  A    between atoms: _521  and  _524
REMARK  217  A    between atoms: _524  and  _525
REMARK  218  A    between atoms: _530  and  _531
REMARK  219  A    between atoms: _533  and  _535
REMARK  220  A    between atoms: _535  and  _536
REMARK  221  A    between atoms: _535  and  _538
REMARK  222  A    between atoms: _538  and  _539
REMARK  223  A    between atoms: _542  and  _544
REMARK  224  A    between atoms: _544  and  _545
REMARK  225  A    between atoms: _544  and  _547
REMARK  226  A    between atoms: _547  and  _548
REMARK  227  A    between atoms: _558  and  _560
REMARK  228  A    between atoms: _560  and  _561
REMARK  229  A    between atoms: _564  and  _566
REMARK  230  A    between atoms: _566  and  _567
REMARK  231  A    between atoms: _570  and  _572
REMARK  232  A    between atoms: _572  and  _573
REMARK  233  A    between atoms: _572  and  _575
REMARK  234  A    between atoms: _575  and  _576
REMARK  235  A    between atoms: _579  and  _581
REMARK  236  A    between atoms: _581  and  _582
REMARK  237  A    between atoms: _581  and  _584
REMARK  238  A    between atoms: _584  and  _585
REMARK  239  A    between atoms: _588  and  _590
REMARK  240  A    between atoms: _590  and  _591
REMARK  241  A    between atoms: _590  and  _593
REMARK  242  A    between atoms: _593  and  _594
REMARK  243  A    between atoms: _597  and  _599
REMARK  244  A    between atoms: _599  and  _600
REMARK  245  A    between atoms: _599  and  _602
REMARK  246  A    between atoms: _602  and  _603
REMARK  247  A    between atoms: _603  and  _604
REMARK  248  A    between atoms: _604  and  _605
REMARK  249  A    between atoms: _605  and  _606
REMARK  250  A    between atoms: _610  and  _612
REMARK  251  A    between atoms: _612  and  _613
REMARK  252  A    between atoms: _612  and  _615
REMARK  253  A    between atoms: _615  and  _616
REMARK  254  A    between atoms: _621  and  _623
REMARK  255  A    between atoms: _623  and  _624
REMARK  256  A    between atoms: _623  and  _626
REMARK  257  A    between atoms: _626  and  _627
REMARK  258  A    between atoms: _627  and  _628
REMARK  259  A    between atoms: _628  and  _629
REMARK  260  A    between atoms: _629  and  _630
REMARK  261  A    between atoms: _634  and  _636
REMARK  262  A    between atoms: _636  and  _637
REMARK  263  A    between atoms: _636  and  _639
REMARK  264  A    between atoms: _639  and  _640
REMARK  265  A    between atoms: _650  and  _652
REMARK  266  A    between atoms: _652  and  _653
REMARK  267  A    between atoms: _656  and  _658
REMARK  268  A    between atoms: _658  and  _659
REMARK  269  A    between atoms: _661  and  _663
REMARK  270  A    between atoms: _663  and  _664
REMARK  271  A    between atoms: _667  and  _669
REMARK  272  A    between atoms: _669  and  _670
REMARK  273  A    between atoms: _673  and  _675
REMARK  274  A    between atoms: _675  and  _676
REMARK  275  A    between atoms: _675  and  _678
REMARK  276  A    between atoms: _678  and  _679
REMARK  277  A    between atoms: _684  and  _685
REMARK  278  A    between atoms: _687  and  _689
REMARK  279  A    between atoms: _689  and  _690
REMARK  280  A    between atoms: _689  and  _692
REMARK  281  A    between atoms: _692  and  _693
REMARK  282  A    between atoms: _698  and  _699
REMARK  283  A    between atoms: _701  and  _703
REMARK  284  A    between atoms: _703  and  _704
REMARK  285  A    between atoms: _703  and  _706
REMARK  286  A    between atoms: _706  and  _707
REMARK  287  A    between atoms: _712  and  _713
REMARK  288  A    between atoms: _715  and  _717
REMARK  289  A    between atoms: _717  and  _718
REMARK  290  A    between atoms: _717  and  _720
REMARK  291  A    between atoms: _720  and  _721
REMARK  292  A    between atoms: _724  and  _726
REMARK  293  A    between atoms: _726  and  _727
REMARK  294  A    between atoms: _729  and  _731
REMARK  295  A    between atoms: _731  and  _732
REMARK  296  A    between atoms: _731  and  _734
REMARK  297  A    between atoms: _734  and  _735
REMARK  298  A    between atoms: _738  and  _740
REMARK  299  A    between atoms: _740  and  _741
REMARK  300  A    between atoms: _740  and  _743
REMARK  301  A    between atoms: _743  and  _744
REMARK  302  A    between atoms: _745  and  _747
REMARK  303  A    between atoms: _747  and  _748
REMARK  304  A    between atoms: _747  and  _750
REMARK  305  A    between atoms: _753  and  _755
REMARK  306  A    between atoms: _755  and  _756
REMARK  307  A    between atoms: _755  and  _758
REMARK  308  A    between atoms: _758  and  _759
REMARK  309  A    between atoms: _759  and  _760
REMARK  310  A    between atoms: _763  and  _765
REMARK  311  A    between atoms: _765  and  _766
REMARK  312  A    between atoms: _765  and  _768
REMARK  313  A    between atoms: _768  and  _769
REMARK  314  A    between atoms: _779  and  _781
REMARK  315  A    between atoms: _781  and  _782
REMARK  316  A    between atoms: _781  and  _784
REMARK  317  A    between atoms: _784  and  _785
REMARK  318  A    between atoms: _788  and  _790
REMARK  319  A    between atoms: _790  and  _791
REMARK  320  A    between atoms: _790  and  _793
REMARK  321  A    between atoms: _793  and  _794
REMARK  322  A    between atoms: _799  and  _800
REMARK                            x       y       z     vdW  Elec       q    Type
REMARK                         _______ _______ _______ _____ _____    ______ ____
ROOT
ATOM      1  O   HOH     1      34.421  57.568 -14.270  0.00  0.00    +0.000 OA
ENDROOT
TORSDOF 0
REMARK  Name = ../refined-set-2016/1fzk/1fzk_pocket.pdb
REMARK  322 active torsions:
REMARK  status: ('A' for Active; 'I' for Inactive)
REMARK    1  A    between atoms: _1  and  _3
REMARK    2  A    between atoms: _3  and  _4
REMARK    3  A    between atoms: _3  and  _6
REMARK    4  A    between atoms: _6  and  _7
REMARK    5  A    between atoms: _10  and  _12
REMARK    6  A    between atoms: _12  and  _13
REMARK    7  A    between atoms: _12  and  _15
REMARK    8  A    between atoms: _15  and  _16
REMARK    9  A    between atoms: _16  and  _17
REMARK   10  A    between atoms: _17  and  _18
REMARK   11  A    between atoms: _27  and  _29
REMARK   12  A    between atoms: _29  and  _30
REMARK   13  A    between atoms: _29  and  _32
REMARK   14  A    between atoms: _32  and  _33
REMARK   15  A    between atoms: _38  and  _39
REMARK   16  A    between atoms: _41  and  _43
REMARK   17  A    between atoms: _43  and  _44
REMARK   18  A    between atoms: _43  and  _46
REMARK   19  A    between atoms: _46  and  _47
REMARK   20  A    between atoms: _53  and  _55
REMARK   21  A    between atoms: _55  and  _56
REMARK   22  A    between atoms: _55  and  _58
REMARK   23  A    between atoms: _61  and  _63
REMARK   24  A    between atoms: _63  and  _64
REMARK   25  A    between atoms: _63  and  _66
REMARK   26  A    between atoms: _66  and  _67
REMARK   27  A    between atoms: _70  and  _72
REMARK   28  A    between atoms: _72  and  _73
REMARK   29  A    between atoms: _72  and  _75
REMARK   30  A    between atoms: _75  and  _76
REMARK   31  A    between atoms: _81  and  _82
REMARK   32  A    between atoms: _84  and  _86
REMARK   33  A    between atoms: _86  and  _87
REMARK   34  A    between atoms: _86  and  _89
REMARK   35  A    between atoms: _89  and  _90
REMARK   36  A    between atoms: _90  and  _91
REMARK   37  A    between atoms: _93  and  _95
REMARK   38  A    between atoms: _95  and  _96
REMARK   39  A    between atoms: _95  and  _98
REMARK   40  A    between atoms: _98  and  _99
REMARK   41  A    between atoms: _99  and  _100
REMARK   42  A    between atoms: _103  and  _105
REMARK   43  A    between atoms: _105  and  _106
REMARK   44  A    between atoms: _105  and  _108
REMARK   45  A    between atoms: _111  and  _113
REMARK   46  A    between atoms: _113  and  _114
REMARK   47  A    between atoms: _116  and  _118
REMARK   48  A    between atoms: _118  and  _119
REMARK   49  A    between atoms: _118  and  _121
REMARK   50  A    between atoms: _124  and  _126
REMARK   51  A    between atoms: _126  and  _127
REMARK   52  A    between atoms: _126  and  _129
REMARK   53  A    between atoms: _129  and  _130
REMARK   54  A    between atoms: _136  and  _138
REMARK   55  A    between atoms: _138  and  _139
REMARK   56  A    between atoms: _138  and  _141
REMARK   57  A    between atoms: _144  and  _146
REMARK   58  A    between atoms: _146  and  _147
REMARK   59  A    between atoms: _146  and  _149
REMARK   60  A    between atoms: _149  and  _150
REMARK   61  A    between atoms: _155  and  _156
REMARK   62  A    between atoms: _158  and  _160
REMARK   63  A    between atoms: _160  and  _161
REMARK   64  A    between atoms: _160  and  _163
REMARK   65  A    between atoms: _163  and  _164
REMARK   66  A    between atoms: _164  and  _165
REMARK   67  A    between atoms: _167  and  _169
REMARK   68  A    between atoms: _169  and  _170
REMARK   69  A    between atoms: _169  and  _172
REMARK   70  A    between atoms: _172  and  _173
REMARK   71  A    between atoms: _173  and  _174
REMARK   72  A    between atoms: _177  and  _179
REMARK   73  A    between atoms: _179  and  _180
REMARK   74  A    between atoms: _179  and  _182
REMARK   75  A    between atoms: _182  and  _183
REMARK   76  A    between atoms: _183  and  _184
REMARK   77  A    between atoms: _187  and  _189
REMARK   78  A    between atoms: _189  and  _190
REMARK   79  A    between atoms: _189  and  _192
REMARK   80  A    between atoms: _192  and  _193
REMARK   81  A    between atoms: _198  and  _199
REMARK   82  A    between atoms: _201  and  _203
REMARK   83  A    between atoms: _203  and  _204
REMARK   84  A    between atoms: _203  and  _206
REMARK   85  A    between atoms: _206  and  _207
REMARK   86  A    between atoms: _207  and  _208
REMARK   87  A    between atoms: _208  and  _209
REMARK   88  A    between atoms: _218  and  _220
REMARK   89  A    between atoms: _220  and  _221
REMARK   90  A    between atoms: _220  and  _223
REMARK   91  A    between atoms: _223  and  _224
REMARK   92  A    between atoms: _224  and  _225
REMARK   93  A    between atoms: _228  and  _230
REMARK   94  A    between atoms: _230  and  _231
REMARK   95  A    between atoms: _230  and  _233
REMARK   96  A    between atoms: _233  and  _234
REMARK   97  A    between atoms: _234  and  _235
REMARK   98  A    between atoms: _240  and  _242
REMARK   99  A    between atoms: _242  and  _243
REMARK  100  A    between atoms: _242  and  _245
REMARK  101  A    between atoms: _245  and  _246
REMARK  102  A    between atoms: _246  and  _247
REMARK  103  A    between atoms: _247  and  _248
REMARK  104  A    between atoms: _248  and  _249
REMARK  105  A    between atoms: _253  and  _255
REMARK  106  A    between atoms: _255  and  _256
REMARK  107  A    between atoms: _259  and  _261
REMARK  108  A    between atoms: _261  and  _262
REMARK  109  A    between atoms: _264  and  _266
REMARK  110  A    between atoms: _266  and  _267
REMARK  111  A    between atoms: _266  and  _269
REMARK  112  A    between atoms: _269  and  _270
REMARK  113  A    between atoms: _275  and  _277
REMARK  114  A    between atoms: _277  and  _278
REMARK  115  A    between atoms: _277  and  _280
REMARK  116  A    between atoms: _280  and  _281
REMARK  117  A    between atoms: _281  and  _282
REMARK  118  A    between atoms: _285  and  _287
REMARK  119  A    between atoms: _287  and  _288
REMARK  120  A    between atoms: _287  and  _290
REMARK  121  A    between atoms: _290  and  _291
REMARK  122  A    between atoms: _291  and  _292
REMARK  123  A    between atoms: _297  and  _299
REMARK  124  A    between atoms: _299  and  _300
REMARK  125  A    between atoms: _299  and  _302
REMARK  126  A    between atoms: _302  and  _303
REMARK  127  A    between atoms: _305  and  _307
REMARK  128  A    between atoms: _307  and  _308
REMARK  129  A    between atoms: _307  and  _310
REMARK  130  A    between atoms: _310  and  _311
REMARK  131  A    between atoms: _317  and  _319
REMARK  132  A    between atoms: _319  and  _320
REMARK  133  A    between atoms: _319  and  _322
REMARK  134  A    between atoms: _325  and  _327
REMARK  135  A    between atoms: _327  and  _328
REMARK  136  A    between atoms: _327  and  _330
REMARK  137  A    between atoms: _330  and  _331
REMARK  138  A    between atoms: _334  and  _336
REMARK  139  A    between atoms: _336  and  _337
REMARK  140  A    between atoms: _336  and  _339
REMARK  141  A    between atoms: _339  and  _340
REMARK  142  A    between atoms: _343  and  _345
REMARK  143  A    between atoms: _345  and  _346
REMARK  144  A    between atoms: _345  and  _348
REMARK  145  A    between atoms: _348  and  _349
REMARK  146  A    between atoms: _352  and  _354
REMARK  147  A    between atoms: _354  and  _355
REMARK  148  A    between atoms: _354  and  _357
REMARK  149  A    between atoms: _357  and  _358
REMARK  150  A    between atoms: _361  and  _363
REMARK  151  A    between atoms: _363  and  _364
REMARK  152  A    between atoms: _363  and  _366
REMARK  153  A    between atoms: _366  and  _367
REMARK  154  A    between atoms: _372  and  _373
REMARK  155  A    between atoms: _375  and  _377
REMARK  156  A    between atoms: _377  and  _378
REMARK  157  A    between atoms: _377  and  _380
REMARK  158  A    between atoms: _380  and  _381
REMARK  159  A    between atoms: _386  and  _387
REMARK  160  A    between atoms: _389  and  _391
REMARK  161  A    between atoms: _391  and  _392
REMARK  162  A    between atoms: _391  and  _394
REMARK  163  A    between atoms: _394  and  _395
REMARK  164  A    between atoms: _398  and  _400
REMARK  165  A    between atoms: _400  and  _401
REMARK  166  A    between atoms: _400  and  _403
REMARK  167  A    between atoms: _403  and  _404
REMARK  168  A    between atoms: _404  and  _405
REMARK  169  A    between atoms: _410  and  _412
REMARK  170  A    between atoms: _412  and  _413
REMARK  171  A    between atoms: _412  and  _415
REMARK  172  A    between atoms: _418  and  _420
REMARK  173  A    between atoms: _420  and  _421
REMARK  174  A    between atoms: _420  and  _423
REMARK  175  A    between atoms: _423  and  _424
REMARK  176  A    between atoms: _427  and  _429
REMARK  177  A    between atoms: _429  and  _430
REMARK  178  A    between atoms: _429  and  _432
REMARK  179  A    between atoms: _432  and  _433
REMARK  180  A    between atoms: _435  and  _437
REMARK  181  A    between atoms: _437  and  _438
REMARK  182  A    between atoms: _440  and  _442
REMARK  183  A    between atoms: _442  and  _443
REMARK  184  A    between atoms: _442  and  _445
REMARK  185  A    between atoms: _445  and  _446
REMARK  186  A    between atoms: _446  and  _744
REMARK  187  A    between atoms: _447  and  _449
REMARK  188  A    between atoms: _449  and  _450
REMARK  189  A    between atoms: _449  and  _452
REMARK  190  A    between atoms: _452  and  _453
REMARK  191  A    between atoms: _458  and  _459
REMARK  192  A    between atoms: _461  and  _463
REMARK  193  A    between atoms: _463  and  _464
REMARK  194  A    between atoms: _463  and  _466
REMARK  195  A    between atoms: _466  and  _467
REMARK  196  A    between atoms: _467  and  _468
REMARK  197  A    between atoms: _473  and  _475
REMARK  198  A    between atoms: _475  and  _476
REMARK  199  A    between atoms: _475  and  _478
REMARK  200  A    between atoms: _478  and  _479
REMARK  201  A    between atoms: _479  and  _480
REMARK  202  A    between atoms: _485  and  _487
REMARK  203  A    between atoms: _487  and  _488
REMARK  204  A    between atoms: _487  and  _490
REMARK  205  A    between atoms: _490  and  _491
REMARK  206  A    between atoms: _496  and  _497
REMARK  207  A    between atoms: _499  and  _501
REMARK  208  A    between atoms: _501  and  _502
REMARK  209  A    between atoms: _505  and  _507
REMARK  210  A    between atoms: _507  and  _508
REMARK  211  A    between atoms: _507  and  _510
REMARK  212  A    between atoms: _510  and  _511
REMARK  213  A    between atoms: _516  and  _517
REMARK  214  A    between atoms: _519  and  _521
REMARK  215  A    between atoms: _521  and  _522
REMARK  216  A    between atoms: _521  and  _524
REMARK  217  A    between atoms: _524  and  _525
REMARK  218  A    between atoms: _530  and  _531
REMARK  219  A    between atoms: _533  and  _535
REMARK  220  A    between atoms: _535  and  _536
REMARK  221  A    between atoms: _535  and  _538
REMARK  222  A    between atoms: _538  and  _539
REMARK  223  A    between atoms: _542  and  _544
REMARK  224  A    between atoms: _544  and  _545
REMARK  225  A    between atoms: _544  and  _547
REMARK  226  A    between atoms: _547  and  _548
REMARK  227  A    between atoms: _558  and  _560
REMARK  228  A    between atoms: _560  and  _561
REMARK  229  A    between atoms: _564  and  _566
REMARK  230  A    between atoms: _566  and  _567
REMARK  231  A    between atoms: _570  and  _572
REMARK  232  A    between atoms: _572  and  _573
REMARK  233  A    between atoms: _572  and  _575
REMARK  234  A    between atoms: _575  and  _576
REMARK  235  A    between atoms: _579  and  _581
REMARK  236  A    between atoms: _581  and  _582
REMARK  237  A    between atoms: _581  and  _584
REMARK  238  A    between atoms: _584  and  _585
REMARK  239  A    between atoms: _588  and  _590
REMARK  240  A    between atoms: _590  and  _591
REMARK  241  A    between atoms: _590  and  _593
REMARK  242  A    between atoms: _593  and  _594
REMARK  243  A    between atoms: _597  and  _599
REMARK  244  A    between atoms: _599  and  _600
REMARK  245  A    between atoms: _599  and  _602
REMARK  246  A    between atoms: _602  and  _603
REMARK  247  A    between atoms: _603  and  _604
REMARK  248  A    between atoms: _604  and  _605
REMARK  249  A    between atoms: _605  and  _606
REMARK  250  A    between atoms: _610  and  _612
REMARK  251  A    between atoms: _612  and  _613
REMARK  252  A    between atoms: _612  and  _615
REMARK  253  A    between atoms: _615  and  _616
REMARK  254  A    between atoms: _621  and  _623
REMARK  255  A    between atoms: _623  and  _624
REMARK  256  A    between atoms: _623  and  _626
REMARK  257  A    between atoms: _626  and  _627
REMARK  258  A    between atoms: _627  and  _628
REMARK  259  A    between atoms: _628  and  _629
REMARK  260  A    between atoms: _629  and  _630
REMARK  261  A    between atoms: _634  and  _636
REMARK  262  A    between atoms: _636  and  _637
REMARK  263  A    between atoms: _636  and  _639
REMARK  264  A    between atoms: _639  and  _640
REMARK  265  A    between atoms: _650  and  _652
REMARK  266  A    between atoms: _652  and  _653
REMARK  267  A    between atoms: _656  and  _658
REMARK  268  A    between atoms: _658  and  _659
REMARK  269  A    between atoms: _661  and  _663
REMARK  270  A    between atoms: _663  and  _664
REMARK  271  A    between atoms: _667  and  _669
REMARK  272  A    between atoms: _669  and  _670
REMARK  273  A    between atoms: _673  and  _675
REMARK  274  A    between atoms: _675  and  _676
REMARK  275  A    between atoms: _675  and  _678
REMARK  276  A    between atoms: _678  and  _679
REMARK  277  A    between atoms: _684  and  _685
REMARK  278  A    between atoms: _687  and  _689
REMARK  279  A    between atoms: _689  and  _690
REMARK  280  A    between atoms: _689  and  _692
REMARK  281  A    between atoms: _692  and  _693
REMARK  282  A    between atoms: _698  and  _699
REMARK  283  A    between atoms: _701  and  _703
REMARK  284  A    between atoms: _703  and  _704
REMARK  285  A    between atoms: _703  and  _706
REMARK  286  A    between atoms: _706  and  _707
REMARK  287  A    between atoms: _712  and  _713
REMARK  288  A    between atoms: _715  and  _717
REMARK  289  A    between atoms: _717  and  _718
REMARK  290  A    between atoms: _717  and  _720
REMARK  291  A    between atoms: _720  and  _721
REMARK  292  A    between atoms: _724  and  _726
REMARK  293  A    between atoms: _726  and  _727
REMARK  294  A    between atoms: _729  and  _731
REMARK  295  A    between atoms: _731  and  _732
REMARK  296  A    between atoms: _731  and  _734
REMARK  297  A    between atoms: _734  and  _735
REMARK  298  A    between atoms: _738  and  _740
REMARK  299  A    between atoms: _740  and  _741
REMARK  300  A    between atoms: _740  and  _743
REMARK  301  A    between atoms: _743  and  _744
REMARK  302  A    between atoms: _745  and  _747
REMARK  303  A    between atoms: _747  and  _748
REMARK  304  A    between atoms: _747  and  _750
REMARK  305  A    between atoms: _753  and  _755
REMARK  306  A    between atoms: _755  and  _756
REMARK  307  A    between atoms: _755  and  _758
REMARK  308  A    between atoms: _758  and  _759
REMARK  309  A    between atoms: _759  and  _760
REMARK  310  A    between atoms: _763  and  _765
REMARK  311  A    between atoms: _765  and  _766
REMARK  312  A    between atoms: _765  and  _768
REMARK  313  A    between atoms: _768  and  _769
REMARK  314  A    between atoms: _779  and  _781
REMARK  315  A    between atoms: _781  and  _782
REMARK  316  A    between atoms: _781  and  _784
REMARK  317  A    between atoms: _784  and  _785
REMARK  318  A    between atoms: _788  and  _790
REMARK  319  A    between atoms: _790  and  _791
REMARK  320  A    between atoms: _790  and  _793
REMARK  321  A    between atoms: _793  and  _794
REMARK  322  A    between atoms: _799  and  _800
REMARK                            x       y       z     vdW  Elec       q    Type
REMARK                         _______ _______ _______ _____ _____    ______ ____
ROOT
ATOM      1  O   HOH     1      39.753  61.427  -1.399  0.00  0.00    +0.000 OA
ENDROOT
TORSDOF 0
REMARK  Name = ../refined-set-2016/1fzk/1fzk_pocket.pdb
REMARK  322 active torsions:
REMARK  status: ('A' for Active; 'I' for Inactive)
REMARK    1  A    between atoms: _1  and  _3
REMARK    2  A    between atoms: _3  and  _4
REMARK    3  A    between atoms: _3  and  _6
REMARK    4  A    between atoms: _6  and  _7
REMARK    5  A    between atoms: _10  and  _12
REMARK    6  A    between atoms: _12  and  _13
REMARK    7  A    between atoms: _12  and  _15
REMARK    8  A    between atoms: _15  and  _16
REMARK    9  A    between atoms: _16  and  _17
REMARK   10  A    between atoms: _17  and  _18
REMARK   11  A    between atoms: _27  and  _29
REMARK   12  A    between atoms: _29  and  _30
REMARK   13  A    between atoms: _29  and  _32
REMARK   14  A    between atoms: _32  and  _33
REMARK   15  A    between atoms: _38  and  _39
REMARK   16  A    between atoms: _41  and  _43
REMARK   17  A    between atoms: _43  and  _44
REMARK   18  A    between atoms: _43  and  _46
REMARK   19  A    between atoms: _46  and  _47
REMARK   20  A    between atoms: _53  and  _55
REMARK   21  A    between atoms: _55  and  _56
REMARK   22  A    between atoms: _55  and  _58
REMARK   23  A    between atoms: _61  and  _63
REMARK   24  A    between atoms: _63  and  _64
REMARK   25  A    between atoms: _63  and  _66
REMARK   26  A    between atoms: _66  and  _67
REMARK   27  A    between atoms: _70  and  _72
REMARK   28  A    between atoms: _72  and  _73
REMARK   29  A    between atoms: _72  and  _75
REMARK   30  A    between atoms: _75  and  _76
REMARK   31  A    between atoms: _81  and  _82
REMARK   32  A    between atoms: _84  and  _86
REMARK   33  A    between atoms: _86  and  _87
REMARK   34  A    between atoms: _86  and  _89
REMARK   35  A    between atoms: _89  and  _90
REMARK   36  A    between atoms: _90  and  _91
REMARK   37  A    between atoms: _93  and  _95
REMARK   38  A    between atoms: _95  and  _96
REMARK   39  A    between atoms: _95  and  _98
REMARK   40  A    between atoms: _98  and  _99
REMARK   41  A    between atoms: _99  and  _100
REMARK   42  A    between atoms: _103  and  _105
REMARK   43  A    between atoms: _105  and  _106
REMARK   44  A    between atoms: _105  and  _108
REMARK   45  A    between atoms: _111  and  _113
REMARK   46  A    between atoms: _113  and  _114
REMARK   47  A    between atoms: _116  and  _118
REMARK   48  A    between atoms: _118  and  _119
REMARK   49  A    between atoms: _118  and  _121
REMARK   50  A    between atoms: _124  and  _126
REMARK   51  A    between atoms: _126  and  _127
REMARK   52  A    between atoms: _126  and  _129
REMARK   53  A    between atoms: _129  and  _130
REMARK   54  A    between atoms: _136  and  _138
REMARK   55  A    between atoms: _138  and  _139
REMARK   56  A    between atoms: _138  and  _141
REMARK   57  A    between atoms: _144  and  _146
REMARK   58  A    between atoms: _146  and  _147
REMARK   59  A    between atoms: _146  and  _149
REMARK   60  A    between atoms: _149  and  _150
REMARK   61  A    between atoms: _155  and  _156
REMARK   62  A    between atoms: _158  and  _160
REMARK   63  A    between atoms: _160  and  _161
REMARK   64  A    between atoms: _160  and  _163
REMARK   65  A    between atoms: _163  and  _164
REMARK   66  A    between atoms: _164  and  _165
REMARK   67  A    between atoms: _167  and  _169
REMARK   68  A    between atoms: _169  and  _170
REMARK   69  A    between atoms: _169  and  _172
REMARK   70  A    between atoms: _172  and  _173
REMARK   71  A    between atoms: _173  and  _174
REMARK   72  A    between atoms: _177  and  _179
REMARK   73  A    between atoms: _179  and  _180
REMARK   74  A    between atoms: _179  and  _182
REMARK   75  A    between atoms: _182  and  _183
REMARK   76  A    between atoms: _183  and  _184
REMARK   77  A    between atoms: _187  and  _189
REMARK   78  A    between atoms: _189  and  _190
REMARK   79  A    between atoms: _189  and  _192
REMARK   80  A    between atoms: _192  and  _193
REMARK   81  A    between atoms: _198  and  _199
REMARK   82  A    between atoms: _201  and  _203
REMARK   83  A    between atoms: _203  and  _204
REMARK   84  A    between atoms: _203  and  _206
REMARK   85  A    between atoms: _206  and  _207
REMARK   86  A    between atoms: _207  and  _208
REMARK   87  A    between atoms: _208  and  _209
REMARK   88  A    between atoms: _218  and  _220
REMARK   89  A    between atoms: _220  and  _221
REMARK   90  A    between atoms: _220  and  _223
REMARK   91  A    between atoms: _223  and  _224
REMARK   92  A    between atoms: _224  and  _225
REMARK   93  A    between atoms: _228  and  _230
REMARK   94  A    between atoms: _230  and  _231
REMARK   95  A    between atoms: _230  and  _233
REMARK   96  A    between atoms: _233  and  _234
REMARK   97  A    between atoms: _234  and  _235
REMARK   98  A    between atoms: _240  and  _242
REMARK   99  A    between atoms: _242  and  _243
REMARK  100  A    between atoms: _242  and  _245
REMARK  101  A    between atoms: _245  and  _246
REMARK  102  A    between atoms: _246  and  _247
REMARK  103  A    between atoms: _247  and  _248
REMARK  104  A    between atoms: _248  and  _249
REMARK  105  A    between atoms: _253  and  _255
REMARK  106  A    between atoms: _255  and  _256
REMARK  107  A    between atoms: _259  and  _261
REMARK  108  A    between atoms: _261  and  _262
REMARK  109  A    between atoms: _264  and  _266
REMARK  110  A    between atoms: _266  and  _267
REMARK  111  A    between atoms: _266  and  _269
REMARK  112  A    between atoms: _269  and  _270
REMARK  113  A    between atoms: _275  and  _277
REMARK  114  A    between atoms: _277  and  _278
REMARK  115  A    between atoms: _277  and  _280
REMARK  116  A    between atoms: _280  and  _281
REMARK  117  A    between atoms: _281  and  _282
REMARK  118  A    between atoms: _285  and  _287
REMARK  119  A    between atoms: _287  and  _288
REMARK  120  A    between atoms: _287  and  _290
REMARK  121  A    between atoms: _290  and  _291
REMARK  122  A    between atoms: _291  and  _292
REMARK  123  A    between atoms: _297  and  _299
REMARK  124  A    between atoms: _299  and  _300
REMARK  125  A    between atoms: _299  and  _302
REMARK  126  A    between atoms: _302  and  _303
REMARK  127  A    between atoms: _305  and  _307
REMARK  128  A    between atoms: _307  and  _308
REMARK  129  A    between atoms: _307  and  _310
REMARK  130  A    between atoms: _310  and  _311
REMARK  131  A    between atoms: _317  and  _319
REMARK  132  A    between atoms: _319  and  _320
REMARK  133  A    between atoms: _319  and  _322
REMARK  134  A    between atoms: _325  and  _327
REMARK  135  A    between atoms: _327  and  _328
REMARK  136  A    between atoms: _327  and  _330
REMARK  137  A    between atoms: _330  and  _331
REMARK  138  A    between atoms: _334  and  _336
REMARK  139  A    between atoms: _336  and  _337
REMARK  140  A    between atoms: _336  and  _339
REMARK  141  A    between atoms: _339  and  _340
REMARK  142  A    between atoms: _343  and  _345
REMARK  143  A    between atoms: _345  and  _346
REMARK  144  A    between atoms: _345  and  _348
REMARK  145  A    between atoms: _348  and  _349
REMARK  146  A    between atoms: _352  and  _354
REMARK  147  A    between atoms: _354  and  _355
REMARK  148  A    between atoms: _354  and  _357
REMARK  149  A    between atoms: _357  and  _358
REMARK  150  A    between atoms: _361  and  _363
REMARK  151  A    between atoms: _363  and  _364
REMARK  152  A    between atoms: _363  and  _366
REMARK  153  A    between atoms: _366  and  _367
REMARK  154  A    between atoms: _372  and  _373
REMARK  155  A    between atoms: _375  and  _377
REMARK  156  A    between atoms: _377  and  _378
REMARK  157  A    between atoms: _377  and  _380
REMARK  158  A    between atoms: _380  and  _381
REMARK  159  A    between atoms: _386  and  _387
REMARK  160  A    between atoms: _389  and  _391
REMARK  161  A    between atoms: _391  and  _392
REMARK  162  A    between atoms: _391  and  _394
REMARK  163  A    between atoms: _394  and  _395
REMARK  164  A    between atoms: _398  and  _400
REMARK  165  A    between atoms: _400  and  _401
REMARK  166  A    between atoms: _400  and  _403
REMARK  167  A    between atoms: _403  and  _404
REMARK  168  A    between atoms: _404  and  _405
REMARK  169  A    between atoms: _410  and  _412
REMARK  170  A    between atoms: _412  and  _413
REMARK  171  A    between atoms: _412  and  _415
REMARK  172  A    between atoms: _418  and  _420
REMARK  173  A    between atoms: _420  and  _421
REMARK  174  A    between atoms: _420  and  _423
REMARK  175  A    between atoms: _423  and  _424
REMARK  176  A    between atoms: _427  and  _429
REMARK  177  A    between atoms: _429  and  _430
REMARK  178  A    between atoms: _429  and  _432
REMARK  179  A    between atoms: _432  and  _433
REMARK  180  A    between atoms: _435  and  _437
REMARK  181  A    between atoms: _437  and  _438
REMARK  182  A    between atoms: _440  and  _442
REMARK  183  A    between atoms: _442  and  _443
REMARK  184  A    between atoms: _442  and  _445
REMARK  185  A    between atoms: _445  and  _446
REMARK  186  A    between atoms: _446  and  _744
REMARK  187  A    between atoms: _447  and  _449
REMARK  188  A    between atoms: _449  and  _450
REMARK  189  A    between atoms: _449  and  _452
REMARK  190  A    between atoms: _452  and  _453
REMARK  191  A    between atoms: _458  and  _459
REMARK  192  A    between atoms: _461  and  _463
REMARK  193  A    between atoms: _463  and  _464
REMARK  194  A    between atoms: _463  and  _466
REMARK  195  A    between atoms: _466  and  _467
REMARK  196  A    between atoms: _467  and  _468
REMARK  197  A    between atoms: _473  and  _475
REMARK  198  A    between atoms: _475  and  _476
REMARK  199  A    between atoms: _475  and  _478
REMARK  200  A    between atoms: _478  and  _479
REMARK  201  A    between atoms: _479  and  _480
REMARK  202  A    between atoms: _485  and  _487
REMARK  203  A    between atoms: _487  and  _488
REMARK  204  A    between atoms: _487  and  _490
REMARK  205  A    between atoms: _490  and  _491
REMARK  206  A    between atoms: _496  and  _497
REMARK  207  A    between atoms: _499  and  _501
REMARK  208  A    between atoms: _501  and  _502
REMARK  209  A    between atoms: _505  and  _507
REMARK  210  A    between atoms: _507  and  _508
REMARK  211  A    between atoms: _507  and  _510
REMARK  212  A    between atoms: _510  and  _511
REMARK  213  A    between atoms: _516  and  _517
REMARK  214  A    between atoms: _519  and  _521
REMARK  215  A    between atoms: _521  and  _522
REMARK  216  A    between atoms: _521  and  _524
REMARK  217  A    between atoms: _524  and  _525
REMARK  218  A    between atoms: _530  and  _531
REMARK  219  A    between atoms: _533  and  _535
REMARK  220  A    between atoms: _535  and  _536
REMARK  221  A    between atoms: _535  and  _538
REMARK  222  A    between atoms: _538  and  _539
REMARK  223  A    between atoms: _542  and  _544
REMARK  224  A    between atoms: _544  and  _545
REMARK  225  A    between atoms: _544  and  _547
REMARK  226  A    between atoms: _547  and  _548
REMARK  227  A    between atoms: _558  and  _560
REMARK  228  A    between atoms: _560  and  _561
REMARK  229  A    between atoms: _564  and  _566
REMARK  230  A    between atoms: _566  and  _567
REMARK  231  A    between atoms: _570  and  _572
REMARK  232  A    between atoms: _572  and  _573
REMARK  233  A    between atoms: _572  and  _575
REMARK  234  A    between atoms: _575  and  _576
REMARK  235  A    between atoms: _579  and  _581
REMARK  236  A    between atoms: _581  and  _582
REMARK  237  A    between atoms: _581  and  _584
REMARK  238  A    between atoms: _584  and  _585
REMARK  239  A    between atoms: _588  and  _590
REMARK  240  A    between atoms: _590  and  _591
REMARK  241  A    between atoms: _590  and  _593
REMARK  242  A    between atoms: _593  and  _594
REMARK  243  A    between atoms: _597  and  _599
REMARK  244  A    between atoms: _599  and  _600
REMARK  245  A    between atoms: _599  and  _602
REMARK  246  A    between atoms: _602  and  _603
REMARK  247  A    between atoms: _603  and  _604
REMARK  248  A    between atoms: _604  and  _605
REMARK  249  A    between atoms: _605  and  _606
REMARK  250  A    between atoms: _610  and  _612
REMARK  251  A    between atoms: _612  and  _613
REMARK  252  A    between atoms: _612  and  _615
REMARK  253  A    between atoms: _615  and  _616
REMARK  254  A    between atoms: _621  and  _623
REMARK  255  A    between atoms: _623  and  _624
REMARK  256  A    between atoms: _623  and  _626
REMARK  257  A    between atoms: _626  and  _627
REMARK  258  A    between atoms: _627  and  _628
REMARK  259  A    between atoms: _628  and  _629
REMARK  260  A    between atoms: _629  and  _630
REMARK  261  A    between atoms: _634  and  _636
REMARK  262  A    between atoms: _636  and  _637
REMARK  263  A    between atoms: _636  and  _639
REMARK  264  A    between atoms: _639  and  _640
REMARK  265  A    between atoms: _650  and  _652
REMARK  266  A    between atoms: _652  and  _653
REMARK  267  A    between atoms: _656  and  _658
REMARK  268  A    between atoms: _658  and  _659
REMARK  269  A    between atoms: _661  and  _663
REMARK  270  A    between atoms: _663  and  _664
REMARK  271  A    between atoms: _667  and  _669
REMARK  272  A    between atoms: _669  and  _670
REMARK  273  A    between atoms: _673  and  _675
REMARK  274  A    between atoms: _675  and  _676
REMARK  275  A    between atoms: _675  and  _678
REMARK  276  A    between atoms: _678  and  _679
REMARK  277  A    between atoms: _684  and  _685
REMARK  278  A    between atoms: _687  and  _689
REMARK  279  A    between atoms: _689  and  _690
REMARK  280  A    between atoms: _689  and  _692
REMARK  281  A    between atoms: _692  and  _693
REMARK  282  A    between atoms: _698  and  _699
REMARK  283  A    between atoms: _701  and  _703
REMARK  284  A    between atoms: _703  and  _704
REMARK  285  A    between atoms: _703  and  _706
REMARK  286  A    between atoms: _706  and  _707
REMARK  287  A    between atoms: _712  and  _713
REMARK  288  A    between atoms: _715  and  _717
REMARK  289  A    between atoms: _717  and  _718
REMARK  290  A    between atoms: _717  and  _720
REMARK  291  A    between atoms: _720  and  _721
REMARK  292  A    between atoms: _724  and  _726
REMARK  293  A    between atoms: _726  and  _727
REMARK  294  A    between atoms: _729  and  _731
REMARK  295  A    between atoms: _731  and  _732
REMARK  296  A    between atoms: _731  and  _734
REMARK  297  A    between atoms: _734  and  _735
REMARK  298  A    between atoms: _738  and  _740
REMARK  299  A    between atoms: _740  and  _741
REMARK  300  A    between atoms: _740  and  _743
REMARK  301  A    between atoms: _743  and  _744
REMARK  302  A    between atoms: _745  and  _747
REMARK  303  A    between atoms: _747  and  _748
REMARK  304  A    between atoms: _747  and  _750
REMARK  305  A    between atoms: _753  and  _755
REMARK  306  A    between atoms: _755  and  _756
REMARK  307  A    between atoms: _755  and  _758
REMARK  308  A    between atoms: _758  and  _759
REMARK  309  A    between atoms: _759  and  _760
REMARK  310  A    between atoms: _763  and  _765
REMARK  311  A    between atoms: _765  and  _766
REMARK  312  A    between atoms: _765  and  _768
REMARK  313  A    between atoms: _768  and  _769
REMARK  314  A    between atoms: _779  and  _781
REMARK  315  A    between atoms: _781  and  _782
REMARK  316  A    between atoms: _781  and  _784
REMARK  317  A    between atoms: _784  and  _785
REMARK  318  A    between atoms: _788  and  _790
REMARK  319  A    between atoms: _790  and  _791
REMARK  320  A    between atoms: _790  and  _793
REMARK  321  A    between atoms: _793  and  _794
REMARK  322  A    between atoms: _799  and  _800
REMARK                            x       y       z     vdW  Elec       q    Type
REMARK                         _______ _______ _______ _____ _____    ______ ____
ROOT
ATOM      1  O   HOH     1      47.324  61.560   0.145  0.00  0.00    +0.000 OA
ENDROOT
TORSDOF 0
