REMARK  Name = ../refined-set-2016/2vl4/2vl4_pocket.pdb
REMARK  134 active torsions:
REMARK  status: ('A' for Active; 'I' for Inactive)
REMARK    1  A    between atoms: _1  and  _3
REMARK    2  A    between atoms: _3  and  _4
REMARK    3  A    between atoms: _3  and  _6
REMARK    4  A    between atoms: _6  and  _7
REMARK    5  A    between atoms: _12  and  _14
REMARK    6  A    between atoms: _14  and  _15
REMARK    7  A    between atoms: _14  and  _17
REMARK    8  A    between atoms: _17  and  _18
REMARK    9  A    between atoms: _28  and  _30
REMARK   10  A    between atoms: _30  and  _31
REMARK   11  A    between atoms: _30  and  _33
REMARK   12  A    between atoms: _33  and  _34
REMARK   13  A    between atoms: _37  and  _39
REMARK   14  A    between atoms: _39  and  _40
REMARK   15  A    between atoms: _39  and  _42
REMARK   16  A    between atoms: _42  and  _43
REMARK   17  A    between atoms: _53  and  _55
REMARK   18  A    between atoms: _55  and  _56
REMARK   19  A    between atoms: _58  and  _60
REMARK   20  A    between atoms: _60  and  _61
REMARK   21  A    between atoms: _60  and  _63
REMARK   22  A    between atoms: _63  and  _64
REMARK   23  A    between atoms: _69  and  _71
REMARK   24  A    between atoms: _71  and  _72
REMARK   25  A    between atoms: _71  and  _74
REMARK   26  A    between atoms: _74  and  _75
REMARK   27  A    between atoms: _78  and  _80
REMARK   28  A    between atoms: _80  and  _81
REMARK   29  A    between atoms: _80  and  _83
REMARK   30  A    between atoms: _83  and  _84
REMARK   31  A    between atoms: _84  and  _85
REMARK   32  A    between atoms: _85  and  _86
REMARK   33  A    between atoms: _95  and  _97
REMARK   34  A    between atoms: _97  and  _98
REMARK   35  A    between atoms: _97  and  _100
REMARK   36  A    between atoms: _100  and  _101
REMARK   37  A    between atoms: _111  and  _113
REMARK   38  A    between atoms: _113  and  _114
REMARK   39  A    between atoms: _116  and  _118
REMARK   40  A    between atoms: _118  and  _119
REMARK   41  A    between atoms: _121  and  _123
REMARK   42  A    between atoms: _123  and  _124
REMARK   43  A    between atoms: _123  and  _126
REMARK   44  A    between atoms: _126  and  _127
REMARK   45  A    between atoms: _130  and  _132
REMARK   46  A    between atoms: _132  and  _133
REMARK   47  A    between atoms: _136  and  _138
REMARK   48  A    between atoms: _138  and  _139
REMARK   49  A    between atoms: _138  and  _141
REMARK   50  A    between atoms: _143  and  _145
REMARK   51  A    between atoms: _145  and  _146
REMARK   52  A    between atoms: _145  and  _148
REMARK   53  A    between atoms: _148  and  _149
REMARK   54  A    between atoms: _154  and  _156
REMARK   55  A    between atoms: _156  and  _157
REMARK   56  A    between atoms: _156  and  _159
REMARK   57  A    between atoms: _159  and  _160
REMARK   58  A    between atoms: _160  and  _161
REMARK   59  A    between atoms: _164  and  _166
REMARK   60  A    between atoms: _166  and  _167
REMARK   61  A    between atoms: _166  and  _169
REMARK   62  A    between atoms: _169  and  _170
REMARK   63  A    between atoms: _170  and  _171
REMARK   64  A    between atoms: _174  and  _176
REMARK   65  A    between atoms: _176  and  _177
REMARK   66  A    between atoms: _176  and  _179
REMARK   67  A    between atoms: _179  and  _180
REMARK   68  A    between atoms: _190  and  _192
REMARK   69  A    between atoms: _192  and  _193
REMARK   70  A    between atoms: _192  and  _195
REMARK   71  A    between atoms: _195  and  _196
REMARK   72  A    between atoms: _199  and  _200
REMARK   73  A    between atoms: _205  and  _207
REMARK   74  A    between atoms: _207  and  _208
REMARK   75  A    between atoms: _207  and  _210
REMARK   76  A    between atoms: _210  and  _211
REMARK   77  A    between atoms: _216  and  _218
REMARK   78  A    between atoms: _218  and  _219
REMARK   79  A    between atoms: _218  and  _221
REMARK   80  A    between atoms: _221  and  _222
REMARK   81  A    between atoms: _232  and  _234
REMARK   82  A    between atoms: _234  and  _235
REMARK   83  A    between atoms: _234  and  _237
REMARK   84  A    between atoms: _237  and  _238
REMARK   85  A    between atoms: _248  and  _250
REMARK   86  A    between atoms: _250  and  _251
REMARK   87  A    between atoms: _250  and  _253
REMARK   88  A    between atoms: _253  and  _254
REMARK   89  A    between atoms: _259  and  _260
REMARK   90  A    between atoms: _262  and  _264
REMARK   91  A    between atoms: _264  and  _265
REMARK   92  A    between atoms: _264  and  _267
REMARK   93  A    between atoms: _267  and  _268
REMARK   94  A    between atoms: _270  and  _272
REMARK   95  A    between atoms: _272  and  _273
REMARK   96  A    between atoms: _272  and  _275
REMARK   97  A    between atoms: _275  and  _276
REMARK   98  A    between atoms: _276  and  _277
REMARK   99  A    between atoms: _280  and  _282
REMARK  100  A    between atoms: _282  and  _283
REMARK  101  A    between atoms: _282  and  _285
REMARK  102  A    between atoms: _285  and  _286
REMARK  103  A    between atoms: _292  and  _294
REMARK  104  A    between atoms: _294  and  _295
REMARK  105  A    between atoms: _297  and  _299
REMARK  106  A    between atoms: _299  and  _300
REMARK  107  A    between atoms: _299  and  _302
REMARK  108  A    between atoms: _302  and  _303
REMARK  109  A    between atoms: _309  and  _311
REMARK  110  A    between atoms: _311  and  _312
REMARK  111  A    between atoms: _311  and  _314
REMARK  112  A    between atoms: _314  and  _315
REMARK  113  A    between atoms: _315  and  _316
REMARK  114  A    between atoms: _321  and  _323
REMARK  115  A    between atoms: _323  and  _324
REMARK  116  A    between atoms: _323  and  _326
REMARK  117  A    between atoms: _326  and  _327
REMARK  118  A    between atoms: _329  and  _331
REMARK  119  A    between atoms: _331  and  _332
REMARK  120  A    between atoms: _331  and  _334
REMARK  121  A    between atoms: _334  and  _335
REMARK  122  A    between atoms: _338  and  _340
REMARK  123  A    between atoms: _340  and  _341
REMARK  124  A    between atoms: _340  and  _343
REMARK  125  A    between atoms: _343  and  _344
REMARK  126  A    between atoms: _354  and  _356
REMARK  127  A    between atoms: _356  and  _357
REMARK  128  A    between atoms: _356  and  _359
REMARK  129  A    between atoms: _359  and  _360
REMARK  130  A    between atoms: _360  and  _361
REMARK  131  A    between atoms: _366  and  _368
REMARK  132  A    between atoms: _368  and  _369
REMARK  133  A    between atoms: _368  and  _371
REMARK  134  A    between atoms: _371  and  _372
REMARK                            x       y       z     vdW  Elec       q    Type
REMARK                         _______ _______ _______ _____ _____    ______ ____
ROOT
ATOM      1  CB  ASN A   1      34.152  51.793   1.400  0.00  0.00    +0.110 C 
ENDROOT
BRANCH   1   2
ATOM      2  CG  ASN A   1      33.237  51.367   0.246  0.00  0.00    +0.221 C 
ATOM      3  ND2 ASN A   1      33.336  50.117  -0.191  0.00  0.00    -0.329 N 
ATOM      4 HD21 ASN A   1      33.997  49.457   0.267  0.00  0.00    +0.145 HD
ATOM      5 HD22 ASN A   1      32.753  49.798  -0.991  0.00  0.00    +0.145 HD
ATOM      6  OD1 ASN A   1      32.486  52.175  -0.249  0.00  0.00    -0.275 OA
ENDBRANCH   1   2
BRANCH   1   7
ATOM      7  CA  ASN A   1      35.255  52.779   0.938  0.00  0.00    +0.142 C 
BRANCH   7   8
ATOM      8  N   ASN A   1      36.247  52.121   0.062  0.00  0.00    -0.239 NA
ATOM      9  H   ASN A   1      36.426  51.099   0.137  0.00  0.00    +0.142 HD
ENDBRANCH   7   8
BRANCH   7  10
ATOM     10  C   ASN A   1      35.832  53.560   2.129  0.00  0.00    +0.225 C 
ATOM     11  O   ASN A   1      35.105  54.297   2.757  0.00  0.00    -0.287 OA
ENDBRANCH   7  10
ENDBRANCH   1   7
TORSDOF 4
REMARK  Name = ../refined-set-2016/2vl4/2vl4_pocket.pdb
REMARK  134 active torsions:
REMARK  status: ('A' for Active; 'I' for Inactive)
REMARK    1  A    between atoms: _1  and  _3
REMARK    2  A    between atoms: _3  and  _4
REMARK    3  A    between atoms: _3  and  _6
REMARK    4  A    between atoms: _6  and  _7
REMARK    5  A    between atoms: _12  and  _14
REMARK    6  A    between atoms: _14  and  _15
REMARK    7  A    between atoms: _14  and  _17
REMARK    8  A    between atoms: _17  and  _18
REMARK    9  A    between atoms: _28  and  _30
REMARK   10  A    between atoms: _30  and  _31
REMARK   11  A    between atoms: _30  and  _33
REMARK   12  A    between atoms: _33  and  _34
REMARK   13  A    between atoms: _37  and  _39
REMARK   14  A    between atoms: _39  and  _40
REMARK   15  A    between atoms: _39  and  _42
REMARK   16  A    between atoms: _42  and  _43
REMARK   17  A    between atoms: _53  and  _55
REMARK   18  A    between atoms: _55  and  _56
REMARK   19  A    between atoms: _58  and  _60
REMARK   20  A    between atoms: _60  and  _61
REMARK   21  A    between atoms: _60  and  _63
REMARK   22  A    between atoms: _63  and  _64
REMARK   23  A    between atoms: _69  and  _71
REMARK   24  A    between atoms: _71  and  _72
REMARK   25  A    between atoms: _71  and  _74
REMARK   26  A    between atoms: _74  and  _75
REMARK   27  A    between atoms: _78  and  _80
REMARK   28  A    between atoms: _80  and  _81
REMARK   29  A    between atoms: _80  and  _83
REMARK   30  A    between atoms: _83  and  _84
REMARK   31  A    between atoms: _84  and  _85
REMARK   32  A    between atoms: _85  and  _86
REMARK   33  A    between atoms: _95  and  _97
REMARK   34  A    between atoms: _97  and  _98
REMARK   35  A    between atoms: _97  and  _100
REMARK   36  A    between atoms: _100  and  _101
REMARK   37  A    between atoms: _111  and  _113
REMARK   38  A    between atoms: _113  and  _114
REMARK   39  A    between atoms: _116  and  _118
REMARK   40  A    between atoms: _118  and  _119
REMARK   41  A    between atoms: _121  and  _123
REMARK   42  A    between atoms: _123  and  _124
REMARK   43  A    between atoms: _123  and  _126
REMARK   44  A    between atoms: _126  and  _127
REMARK   45  A    between atoms: _130  and  _132
REMARK   46  A    between atoms: _132  and  _133
REMARK   47  A    between atoms: _136  and  _138
REMARK   48  A    between atoms: _138  and  _139
REMARK   49  A    between atoms: _138  and  _141
REMARK   50  A    between atoms: _143  and  _145
REMARK   51  A    between atoms: _145  and  _146
REMARK   52  A    between atoms: _145  and  _148
REMARK   53  A    between atoms: _148  and  _149
REMARK   54  A    between atoms: _154  and  _156
REMARK   55  A    between atoms: _156  and  _157
REMARK   56  A    between atoms: _156  and  _159
REMARK   57  A    between atoms: _159  and  _160
REMARK   58  A    between atoms: _160  and  _161
REMARK   59  A    between atoms: _164  and  _166
REMARK   60  A    between atoms: _166  and  _167
REMARK   61  A    between atoms: _166  and  _169
REMARK   62  A    between atoms: _169  and  _170
REMARK   63  A    between atoms: _170  and  _171
REMARK   64  A    between atoms: _174  and  _176
REMARK   65  A    between atoms: _176  and  _177
REMARK   66  A    between atoms: _176  and  _179
REMARK   67  A    between atoms: _179  and  _180
REMARK   68  A    between atoms: _190  and  _192
REMARK   69  A    between atoms: _192  and  _193
REMARK   70  A    between atoms: _192  and  _195
REMARK   71  A    between atoms: _195  and  _196
REMARK   72  A    between atoms: _199  and  _200
REMARK   73  A    between atoms: _205  and  _207
REMARK   74  A    between atoms: _207  and  _208
REMARK   75  A    between atoms: _207  and  _210
REMARK   76  A    between atoms: _210  and  _211
REMARK   77  A    between atoms: _216  and  _218
REMARK   78  A    between atoms: _218  and  _219
REMARK   79  A    between atoms: _218  and  _221
REMARK   80  A    between atoms: _221  and  _222
REMARK   81  A    between atoms: _232  and  _234
REMARK   82  A    between atoms: _234  and  _235
REMARK   83  A    between atoms: _234  and  _237
REMARK   84  A    between atoms: _237  and  _238
REMARK   85  A    between atoms: _248  and  _250
REMARK   86  A    between atoms: _250  and  _251
REMARK   87  A    between atoms: _250  and  _253
REMARK   88  A    between atoms: _253  and  _254
REMARK   89  A    between atoms: _259  and  _260
REMARK   90  A    between atoms: _262  and  _264
REMARK   91  A    between atoms: _264  and  _265
REMARK   92  A    between atoms: _264  and  _267
REMARK   93  A    between atoms: _267  and  _268
REMARK   94  A    between atoms: _270  and  _272
REMARK   95  A    between atoms: _272  and  _273
REMARK   96  A    between atoms: _272  and  _275
REMARK   97  A    between atoms: _275  and  _276
REMARK   98  A    between atoms: _276  and  _277
REMARK   99  A    between atoms: _280  and  _282
REMARK  100  A    between atoms: _282  and  _283
REMARK  101  A    between atoms: _282  and  _285
REMARK  102  A    between atoms: _285  and  _286
REMARK  103  A    between atoms: _292  and  _294
REMARK  104  A    between atoms: _294  and  _295
REMARK  105  A    between atoms: _297  and  _299
REMARK  106  A    between atoms: _299  and  _300
REMARK  107  A    between atoms: _299  and  _302
REMARK  108  A    between atoms: _302  and  _303
REMARK  109  A    between atoms: _309  and  _311
REMARK  110  A    between atoms: _311  and  _312
REMARK  111  A    between atoms: _311  and  _314
REMARK  112  A    between atoms: _314  and  _315
REMARK  113  A    between atoms: _315  and  _316
REMARK  114  A    between atoms: _321  and  _323
REMARK  115  A    between atoms: _323  and  _324
REMARK  116  A    between atoms: _323  and  _326
REMARK  117  A    between atoms: _326  and  _327
REMARK  118  A    between atoms: _329  and  _331
REMARK  119  A    between atoms: _331  and  _332
REMARK  120  A    between atoms: _331  and  _334
REMARK  121  A    between atoms: _334  and  _335
REMARK  122  A    between atoms: _338  and  _340
REMARK  123  A    between atoms: _340  and  _341
REMARK  124  A    between atoms: _340  and  _343
REMARK  125  A    between atoms: _343  and  _344
REMARK  126  A    between atoms: _354  and  _356
REMARK  127  A    between atoms: _356  and  _357
REMARK  128  A    between atoms: _356  and  _359
REMARK  129  A    between atoms: _359  and  _360
REMARK  130  A    between atoms: _360  and  _361
REMARK  131  A    between atoms: _366  and  _368
REMARK  132  A    between atoms: _368  and  _369
REMARK  133  A    between atoms: _368  and  _371
REMARK  134  A    between atoms: _371  and  _372
REMARK                            x       y       z     vdW  Elec       q    Type
REMARK                         _______ _______ _______ _____ _____    ______ ____
ROOT
ATOM      1  CA  ASP A   2      29.247  54.453  -0.413  0.00  0.00    +0.160 C 
ENDROOT
BRANCH   1   4
ATOM      2  C   TRP A   1      30.446  54.651   1.707  0.00  0.00    +0.239 C 
ATOM      3  O   TRP A   1      30.282  55.899   1.667  0.00  0.00    -0.274 OA
ATOM      4  N   ASP A   2      29.952  53.849   0.772  0.00  0.00    -0.297 N 
ATOM      5  H   ASP A   2      30.051  52.817   0.857  0.00  0.00    +0.150 HD
BRANCH   2   6
ATOM      6  CA  TRP A   1      31.192  53.995   2.906  0.00  0.00    +0.149 C 
BRANCH   6   7
ATOM      7  N   TRP A   1      31.647  55.045   3.779  0.00  0.00    -0.238 NA
ATOM      8  H   TRP A   1      31.174  55.971   3.759  0.00  0.00    +0.142 HD
ENDBRANCH   6   7
BRANCH   6   9
ATOM      9  CB  TRP A   1      30.294  52.967   3.646  0.00  0.00    +0.054 C 
BRANCH   9  10
ATOM     10  CG  TRP A   1      30.478  51.556   3.046  0.00  0.00    -0.002 A 
ATOM     11  CD2 TRP A   1      31.522  50.617   3.353  0.00  0.00    +0.013 A 
ATOM     12  CE3 TRP A   1      32.646  50.642   4.217  0.00  0.00    +0.001 A 
ATOM     13  CZ3 TRP A   1      33.490  49.514   4.259  0.00  0.00    +0.000 A 
ATOM     14  CH2 TRP A   1      33.245  48.378   3.427  0.00  0.00    +0.001 A 
ATOM     15  CZ2 TRP A   1      32.157  48.346   2.573  0.00  0.00    +0.017 A 
ATOM     16  CE2 TRP A   1      31.293  49.469   2.563  0.00  0.00    +0.056 A 
ATOM     17  NE1 TRP A   1      30.141  49.692   1.846  0.00  0.00    -0.352 N 
ATOM     18  HE1 TRP A   1      29.699  49.019   1.188  0.00  0.00    +0.166 HD
ATOM     19  CD1 TRP A   1      29.670  50.948   2.141  0.00  0.00    +0.068 A 
ENDBRANCH   9  10
ENDBRANCH   6   9
ENDBRANCH   2   6
ENDBRANCH   1   4
BRANCH   1  20
ATOM     20  C   ASP A   2      27.778  54.907  -0.119  0.00  0.00    +0.241 C 
ATOM     21  N   TRP A   3      27.365  54.841   1.156  0.00  0.00    -0.297 N 
ATOM     22  H   TRP A   3      27.949  54.303   1.828  0.00  0.00    +0.150 HD
ATOM     23  O   ASP A   2      27.078  55.371  -1.043  0.00  0.00    -0.273 OA
BRANCH  21  24
ATOM     24  CA  TRP A   3      26.134  55.482   1.670  0.00  0.00    +0.153 C 
BRANCH  24  25
ATOM     25  C   TRP A   3      26.400  56.190   2.990  0.00  0.00    +0.241 C 
ATOM     26  O   TRP A   3      25.474  56.547   3.715  0.00  0.00    -0.273 OA
ATOM     27  N   GLY A   4      27.680  56.361   3.336  0.00  0.00    -0.296 N 
ATOM     28  H   GLY A   4      28.432  56.195   2.637  0.00  0.00    +0.150 HD
BRANCH  27  29
ATOM     29  CA  GLY A   4      28.024  56.778   4.687  0.00  0.00    +0.163 C 
BRANCH  29  30
ATOM     30  C   GLY A   4      29.002  57.936   4.859  0.00  0.00    +0.229 C 
ATOM     31  O   GLY A   4      29.954  58.075   4.112  0.00  0.00    -0.286 OA
ENDBRANCH  29  30
ENDBRANCH  27  29
ENDBRANCH  24  25
BRANCH  24  32
ATOM     32  CB  TRP A   3      25.016  54.426   1.884  0.00  0.00    +0.057 C 
BRANCH  32  33
ATOM     33  CG  TRP A   3      25.571  53.109   2.356  0.00  0.00    -0.002 A 
ATOM     34  CD2 TRP A   3      26.081  52.810   3.678  0.00  0.00    +0.013 A 
ATOM     35  CE3 TRP A   3      26.234  53.567   4.872  0.00  0.00    +0.001 A 
ATOM     36  CZ3 TRP A   3      26.820  52.929   6.009  0.00  0.00    +0.000 A 
ATOM     37  CH2 TRP A   3      27.213  51.560   5.932  0.00  0.00    +0.001 A 
ATOM     38  CZ2 TRP A   3      27.052  50.822   4.778  0.00  0.00    +0.017 A 
ATOM     39  CE2 TRP A   3      26.503  51.449   3.663  0.00  0.00    +0.056 A 
ATOM     40  NE1 TRP A   3      26.264  50.953   2.402  0.00  0.00    -0.352 N 
ATOM     41  HE1 TRP A   3      26.464  49.985   2.080  0.00  0.00    +0.166 HD
ATOM     42  CD1 TRP A   3      25.705  51.978   1.627  0.00  0.00    +0.068 A 
ENDBRANCH  32  33
ENDBRANCH  24  32
ENDBRANCH  21  24
ENDBRANCH   1  20
BRANCH   1  43
ATOM     43  CB  ASP A   2      29.364  53.585  -1.670  0.00  0.00    +0.143 C 
BRANCH  43  44
ATOM     44  CG  ASP A   2      28.763  52.166  -1.492  0.00  0.00    +0.367 C 
ATOM     45  OD2 ASP A   2      27.998  51.872  -0.521  0.00  0.00    -0.246 OA
ATOM     46  OD1 ASP A   2      29.051  51.335  -2.341  0.00  0.00    -0.246 OA
ENDBRANCH  43  44
ENDBRANCH   1  43
TORSDOF 14
REMARK  Name = ../refined-set-2016/2vl4/2vl4_pocket.pdb
REMARK  134 active torsions:
REMARK  status: ('A' for Active; 'I' for Inactive)
REMARK    1  A    between atoms: _1  and  _3
REMARK    2  A    between atoms: _3  and  _4
REMARK    3  A    between atoms: _3  and  _6
REMARK    4  A    between atoms: _6  and  _7
REMARK    5  A    between atoms: _12  and  _14
REMARK    6  A    between atoms: _14  and  _15
REMARK    7  A    between atoms: _14  and  _17
REMARK    8  A    between atoms: _17  and  _18
REMARK    9  A    between atoms: _28  and  _30
REMARK   10  A    between atoms: _30  and  _31
REMARK   11  A    between atoms: _30  and  _33
REMARK   12  A    between atoms: _33  and  _34
REMARK   13  A    between atoms: _37  and  _39
REMARK   14  A    between atoms: _39  and  _40
REMARK   15  A    between atoms: _39  and  _42
REMARK   16  A    between atoms: _42  and  _43
REMARK   17  A    between atoms: _53  and  _55
REMARK   18  A    between atoms: _55  and  _56
REMARK   19  A    between atoms: _58  and  _60
REMARK   20  A    between atoms: _60  and  _61
REMARK   21  A    between atoms: _60  and  _63
REMARK   22  A    between atoms: _63  and  _64
REMARK   23  A    between atoms: _69  and  _71
REMARK   24  A    between atoms: _71  and  _72
REMARK   25  A    between atoms: _71  and  _74
REMARK   26  A    between atoms: _74  and  _75
REMARK   27  A    between atoms: _78  and  _80
REMARK   28  A    between atoms: _80  and  _81
REMARK   29  A    between atoms: _80  and  _83
REMARK   30  A    between atoms: _83  and  _84
REMARK   31  A    between atoms: _84  and  _85
REMARK   32  A    between atoms: _85  and  _86
REMARK   33  A    between atoms: _95  and  _97
REMARK   34  A    between atoms: _97  and  _98
REMARK   35  A    between atoms: _97  and  _100
REMARK   36  A    between atoms: _100  and  _101
REMARK   37  A    between atoms: _111  and  _113
REMARK   38  A    between atoms: _113  and  _114
REMARK   39  A    between atoms: _116  and  _118
REMARK   40  A    between atoms: _118  and  _119
REMARK   41  A    between atoms: _121  and  _123
REMARK   42  A    between atoms: _123  and  _124
REMARK   43  A    between atoms: _123  and  _126
REMARK   44  A    between atoms: _126  and  _127
REMARK   45  A    between atoms: _130  and  _132
REMARK   46  A    between atoms: _132  and  _133
REMARK   47  A    between atoms: _136  and  _138
REMARK   48  A    between atoms: _138  and  _139
REMARK   49  A    between atoms: _138  and  _141
REMARK   50  A    between atoms: _143  and  _145
REMARK   51  A    between atoms: _145  and  _146
REMARK   52  A    between atoms: _145  and  _148
REMARK   53  A    between atoms: _148  and  _149
REMARK   54  A    between atoms: _154  and  _156
REMARK   55  A    between atoms: _156  and  _157
REMARK   56  A    between atoms: _156  and  _159
REMARK   57  A    between atoms: _159  and  _160
REMARK   58  A    between atoms: _160  and  _161
REMARK   59  A    between atoms: _164  and  _166
REMARK   60  A    between atoms: _166  and  _167
REMARK   61  A    between atoms: _166  and  _169
REMARK   62  A    between atoms: _169  and  _170
REMARK   63  A    between atoms: _170  and  _171
REMARK   64  A    between atoms: _174  and  _176
REMARK   65  A    between atoms: _176  and  _177
REMARK   66  A    between atoms: _176  and  _179
REMARK   67  A    between atoms: _179  and  _180
REMARK   68  A    between atoms: _190  and  _192
REMARK   69  A    between atoms: _192  and  _193
REMARK   70  A    between atoms: _192  and  _195
REMARK   71  A    between atoms: _195  and  _196
REMARK   72  A    between atoms: _199  and  _200
REMARK   73  A    between atoms: _205  and  _207
REMARK   74  A    between atoms: _207  and  _208
REMARK   75  A    between atoms: _207  and  _210
REMARK   76  A    between atoms: _210  and  _211
REMARK   77  A    between atoms: _216  and  _218
REMARK   78  A    between atoms: _218  and  _219
REMARK   79  A    between atoms: _218  and  _221
REMARK   80  A    between atoms: _221  and  _222
REMARK   81  A    between atoms: _232  and  _234
REMARK   82  A    between atoms: _234  and  _235
REMARK   83  A    between atoms: _234  and  _237
REMARK   84  A    between atoms: _237  and  _238
REMARK   85  A    between atoms: _248  and  _250
REMARK   86  A    between atoms: _250  and  _251
REMARK   87  A    between atoms: _250  and  _253
REMARK   88  A    between atoms: _253  and  _254
REMARK   89  A    between atoms: _259  and  _260
REMARK   90  A    between atoms: _262  and  _264
REMARK   91  A    between atoms: _264  and  _265
REMARK   92  A    between atoms: _264  and  _267
REMARK   93  A    between atoms: _267  and  _268
REMARK   94  A    between atoms: _270  and  _272
REMARK   95  A    between atoms: _272  and  _273
REMARK   96  A    between atoms: _272  and  _275
REMARK   97  A    between atoms: _275  and  _276
REMARK   98  A    between atoms: _276  and  _277
REMARK   99  A    between atoms: _280  and  _282
REMARK  100  A    between atoms: _282  and  _283
REMARK  101  A    between atoms: _282  and  _285
REMARK  102  A    between atoms: _285  and  _286
REMARK  103  A    between atoms: _292  and  _294
REMARK  104  A    between atoms: _294  and  _295
REMARK  105  A    between atoms: _297  and  _299
REMARK  106  A    between atoms: _299  and  _300
REMARK  107  A    between atoms: _299  and  _302
REMARK  108  A    between atoms: _302  and  _303
REMARK  109  A    between atoms: _309  and  _311
REMARK  110  A    between atoms: _311  and  _312
REMARK  111  A    between atoms: _311  and  _314
REMARK  112  A    between atoms: _314  and  _315
REMARK  113  A    between atoms: _315  and  _316
REMARK  114  A    between atoms: _321  and  _323
REMARK  115  A    between atoms: _323  and  _324
REMARK  116  A    between atoms: _323  and  _326
REMARK  117  A    between atoms: _326  and  _327
REMARK  118  A    between atoms: _329  and  _331
REMARK  119  A    between atoms: _331  and  _332
REMARK  120  A    between atoms: _331  and  _334
REMARK  121  A    between atoms: _334  and  _335
REMARK  122  A    between atoms: _338  and  _340
REMARK  123  A    between atoms: _340  and  _341
REMARK  124  A    between atoms: _340  and  _343
REMARK  125  A    between atoms: _343  and  _344
REMARK  126  A    between atoms: _354  and  _356
REMARK  127  A    between atoms: _356  and  _357
REMARK  128  A    between atoms: _356  and  _359
REMARK  129  A    between atoms: _359  and  _360
REMARK  130  A    between atoms: _360  and  _361
REMARK  131  A    between atoms: _366  and  _368
REMARK  132  A    between atoms: _368  and  _369
REMARK  133  A    between atoms: _368  and  _371
REMARK  134  A    between atoms: _371  and  _372
REMARK                            x       y       z     vdW  Elec       q    Type
REMARK                         _______ _______ _______ _____ _____    ______ ____
ROOT
ATOM      1  CB  ASN A   1      21.725  43.996   3.403  0.00  0.00    +0.110 C 
ENDROOT
BRANCH   1   2
ATOM      2  CG  ASN A   1      22.054  42.707   2.626  0.00  0.00    +0.221 C 
ATOM      3  OD1 ASN A   1      23.009  42.002   2.940  0.00  0.00    -0.275 OA
ATOM      4  ND2 ASN A   1      21.279  42.435   1.565  0.00  0.00    -0.329 N 
ATOM      5 HD21 ASN A   1      20.479  43.057   1.332  0.00  0.00    +0.145 HD
ATOM      6 HD22 ASN A   1      21.478  41.602   0.975  0.00  0.00    +0.145 HD
ENDBRANCH   1   2
BRANCH   1   7
ATOM      7  CA  ASN A   1      20.647  43.750   4.497  0.00  0.00    +0.142 C 
BRANCH   7   8
ATOM      8  N   ASN A   1      19.345  43.489   3.865  0.00  0.00    -0.239 NA
ATOM      9  H   ASN A   1      19.163  43.893   2.924  0.00  0.00    +0.142 HD
ENDBRANCH   7   8
BRANCH   7  10
ATOM     10  C   ASN A   1      20.606  44.918   5.487  0.00  0.00    +0.225 C 
ATOM     11  O   ASN A   1      20.112  46.015   5.180  0.00  0.00    -0.287 OA
ENDBRANCH   7  10
ENDBRANCH   1   7
TORSDOF 4
REMARK  Name = ../refined-set-2016/2vl4/2vl4_pocket.pdb
REMARK  134 active torsions:
REMARK  status: ('A' for Active; 'I' for Inactive)
REMARK    1  A    between atoms: _1  and  _3
REMARK    2  A    between atoms: _3  and  _4
REMARK    3  A    between atoms: _3  and  _6
REMARK    4  A    between atoms: _6  and  _7
REMARK    5  A    between atoms: _12  and  _14
REMARK    6  A    between atoms: _14  and  _15
REMARK    7  A    between atoms: _14  and  _17
REMARK    8  A    between atoms: _17  and  _18
REMARK    9  A    between atoms: _28  and  _30
REMARK   10  A    between atoms: _30  and  _31
REMARK   11  A    between atoms: _30  and  _33
REMARK   12  A    between atoms: _33  and  _34
REMARK   13  A    between atoms: _37  and  _39
REMARK   14  A    between atoms: _39  and  _40
REMARK   15  A    between atoms: _39  and  _42
REMARK   16  A    between atoms: _42  and  _43
REMARK   17  A    between atoms: _53  and  _55
REMARK   18  A    between atoms: _55  and  _56
REMARK   19  A    between atoms: _58  and  _60
REMARK   20  A    between atoms: _60  and  _61
REMARK   21  A    between atoms: _60  and  _63
REMARK   22  A    between atoms: _63  and  _64
REMARK   23  A    between atoms: _69  and  _71
REMARK   24  A    between atoms: _71  and  _72
REMARK   25  A    between atoms: _71  and  _74
REMARK   26  A    between atoms: _74  and  _75
REMARK   27  A    between atoms: _78  and  _80
REMARK   28  A    between atoms: _80  and  _81
REMARK   29  A    between atoms: _80  and  _83
REMARK   30  A    between atoms: _83  and  _84
REMARK   31  A    between atoms: _84  and  _85
REMARK   32  A    between atoms: _85  and  _86
REMARK   33  A    between atoms: _95  and  _97
REMARK   34  A    between atoms: _97  and  _98
REMARK   35  A    between atoms: _97  and  _100
REMARK   36  A    between atoms: _100  and  _101
REMARK   37  A    between atoms: _111  and  _113
REMARK   38  A    between atoms: _113  and  _114
REMARK   39  A    between atoms: _116  and  _118
REMARK   40  A    between atoms: _118  and  _119
REMARK   41  A    between atoms: _121  and  _123
REMARK   42  A    between atoms: _123  and  _124
REMARK   43  A    between atoms: _123  and  _126
REMARK   44  A    between atoms: _126  and  _127
REMARK   45  A    between atoms: _130  and  _132
REMARK   46  A    between atoms: _132  and  _133
REMARK   47  A    between atoms: _136  and  _138
REMARK   48  A    between atoms: _138  and  _139
REMARK   49  A    between atoms: _138  and  _141
REMARK   50  A    between atoms: _143  and  _145
REMARK   51  A    between atoms: _145  and  _146
REMARK   52  A    between atoms: _145  and  _148
REMARK   53  A    between atoms: _148  and  _149
REMARK   54  A    between atoms: _154  and  _156
REMARK   55  A    between atoms: _156  and  _157
REMARK   56  A    between atoms: _156  and  _159
REMARK   57  A    between atoms: _159  and  _160
REMARK   58  A    between atoms: _160  and  _161
REMARK   59  A    between atoms: _164  and  _166
REMARK   60  A    between atoms: _166  and  _167
REMARK   61  A    between atoms: _166  and  _169
REMARK   62  A    between atoms: _169  and  _170
REMARK   63  A    between atoms: _170  and  _171
REMARK   64  A    between atoms: _174  and  _176
REMARK   65  A    between atoms: _176  and  _177
REMARK   66  A    between atoms: _176  and  _179
REMARK   67  A    between atoms: _179  and  _180
REMARK   68  A    between atoms: _190  and  _192
REMARK   69  A    between atoms: _192  and  _193
REMARK   70  A    between atoms: _192  and  _195
REMARK   71  A    between atoms: _195  and  _196
REMARK   72  A    between atoms: _199  and  _200
REMARK   73  A    between atoms: _205  and  _207
REMARK   74  A    between atoms: _207  and  _208
REMARK   75  A    between atoms: _207  and  _210
REMARK   76  A    between atoms: _210  and  _211
REMARK   77  A    between atoms: _216  and  _218
REMARK   78  A    between atoms: _218  and  _219
REMARK   79  A    between atoms: _218  and  _221
REMARK   80  A    between atoms: _221  and  _222
REMARK   81  A    between atoms: _232  and  _234
REMARK   82  A    between atoms: _234  and  _235
REMARK   83  A    between atoms: _234  and  _237
REMARK   84  A    between atoms: _237  and  _238
REMARK   85  A    between atoms: _248  and  _250
REMARK   86  A    between atoms: _250  and  _251
REMARK   87  A    between atoms: _250  and  _253
REMARK   88  A    between atoms: _253  and  _254
REMARK   89  A    between atoms: _259  and  _260
REMARK   90  A    between atoms: _262  and  _264
REMARK   91  A    between atoms: _264  and  _265
REMARK   92  A    between atoms: _264  and  _267
REMARK   93  A    between atoms: _267  and  _268
REMARK   94  A    between atoms: _270  and  _272
REMARK   95  A    between atoms: _272  and  _273
REMARK   96  A    between atoms: _272  and  _275
REMARK   97  A    between atoms: _275  and  _276
REMARK   98  A    between atoms: _276  and  _277
REMARK   99  A    between atoms: _280  and  _282
REMARK  100  A    between atoms: _282  and  _283
REMARK  101  A    between atoms: _282  and  _285
REMARK  102  A    between atoms: _285  and  _286
REMARK  103  A    between atoms: _292  and  _294
REMARK  104  A    between atoms: _294  and  _295
REMARK  105  A    between atoms: _297  and  _299
REMARK  106  A    between atoms: _299  and  _300
REMARK  107  A    between atoms: _299  and  _302
REMARK  108  A    between atoms: _302  and  _303
REMARK  109  A    between atoms: _309  and  _311
REMARK  110  A    between atoms: _311  and  _312
REMARK  111  A    between atoms: _311  and  _314
REMARK  112  A    between atoms: _314  and  _315
REMARK  113  A    between atoms: _315  and  _316
REMARK  114  A    between atoms: _321  and  _323
REMARK  115  A    between atoms: _323  and  _324
REMARK  116  A    between atoms: _323  and  _326
REMARK  117  A    between atoms: _326  and  _327
REMARK  118  A    between atoms: _329  and  _331
REMARK  119  A    between atoms: _331  and  _332
REMARK  120  A    between atoms: _331  and  _334
REMARK  121  A    between atoms: _334  and  _335
REMARK  122  A    between atoms: _338  and  _340
REMARK  123  A    between atoms: _340  and  _341
REMARK  124  A    between atoms: _340  and  _343
REMARK  125  A    between atoms: _343  and  _344
REMARK  126  A    between atoms: _354  and  _356
REMARK  127  A    between atoms: _356  and  _357
REMARK  128  A    between atoms: _356  and  _359
REMARK  129  A    between atoms: _359  and  _360
REMARK  130  A    between atoms: _360  and  _361
REMARK  131  A    between atoms: _366  and  _368
REMARK  132  A    between atoms: _368  and  _369
REMARK  133  A    between atoms: _368  and  _371
REMARK  134  A    between atoms: _371  and  _372
REMARK                            x       y       z     vdW  Elec       q    Type
REMARK                         _______ _______ _______ _____ _____    ______ ____
ROOT
ATOM      1  CA  ILE A   1      23.770  48.385   8.247  0.00  0.00    +0.133 C 
ENDROOT
BRANCH   1   2
ATOM      2  N   ILE A   1      22.523  47.602   7.998  0.00  0.00    -0.239 NA
ATOM      3  H   ILE A   1      21.636  48.131   7.875  0.00  0.00    +0.142 HD
ENDBRANCH   1   2
BRANCH   1   4
ATOM      4  C   ILE A   1      23.568  49.097   9.598  0.00  0.00    +0.224 C 
ATOM      5  O   ILE A   1      22.460  49.095  10.117  0.00  0.00    -0.287 OA
ENDBRANCH   1   4
BRANCH   1   6
ATOM      6  CB  ILE A   1      24.011  49.457   7.103  0.00  0.00    +0.023 C 
ATOM      7  CG2 ILE A   1      24.177  48.749   5.693  0.00  0.00    +0.002 C 
BRANCH   6   8
ATOM      8  CG1 ILE A   1      22.887  50.522   7.090  0.00  0.00    +0.002 C 
ATOM      9  CD1 ILE A   1      23.397  51.900   6.482  0.00  0.00    +0.000 C 
ENDBRANCH   6   8
ENDBRANCH   1   6
TORSDOF 4
REMARK  Name = ../refined-set-2016/2vl4/2vl4_pocket.pdb
REMARK  134 active torsions:
REMARK  status: ('A' for Active; 'I' for Inactive)
REMARK    1  A    between atoms: _1  and  _3
REMARK    2  A    between atoms: _3  and  _4
REMARK    3  A    between atoms: _3  and  _6
REMARK    4  A    between atoms: _6  and  _7
REMARK    5  A    between atoms: _12  and  _14
REMARK    6  A    between atoms: _14  and  _15
REMARK    7  A    between atoms: _14  and  _17
REMARK    8  A    between atoms: _17  and  _18
REMARK    9  A    between atoms: _28  and  _30
REMARK   10  A    between atoms: _30  and  _31
REMARK   11  A    between atoms: _30  and  _33
REMARK   12  A    between atoms: _33  and  _34
REMARK   13  A    between atoms: _37  and  _39
REMARK   14  A    between atoms: _39  and  _40
REMARK   15  A    between atoms: _39  and  _42
REMARK   16  A    between atoms: _42  and  _43
REMARK   17  A    between atoms: _53  and  _55
REMARK   18  A    between atoms: _55  and  _56
REMARK   19  A    between atoms: _58  and  _60
REMARK   20  A    between atoms: _60  and  _61
REMARK   21  A    between atoms: _60  and  _63
REMARK   22  A    between atoms: _63  and  _64
REMARK   23  A    between atoms: _69  and  _71
REMARK   24  A    between atoms: _71  and  _72
REMARK   25  A    between atoms: _71  and  _74
REMARK   26  A    between atoms: _74  and  _75
REMARK   27  A    between atoms: _78  and  _80
REMARK   28  A    between atoms: _80  and  _81
REMARK   29  A    between atoms: _80  and  _83
REMARK   30  A    between atoms: _83  and  _84
REMARK   31  A    between atoms: _84  and  _85
REMARK   32  A    between atoms: _85  and  _86
REMARK   33  A    between atoms: _95  and  _97
REMARK   34  A    between atoms: _97  and  _98
REMARK   35  A    between atoms: _97  and  _100
REMARK   36  A    between atoms: _100  and  _101
REMARK   37  A    between atoms: _111  and  _113
REMARK   38  A    between atoms: _113  and  _114
REMARK   39  A    between atoms: _116  and  _118
REMARK   40  A    between atoms: _118  and  _119
REMARK   41  A    between atoms: _121  and  _123
REMARK   42  A    between atoms: _123  and  _124
REMARK   43  A    between atoms: _123  and  _126
REMARK   44  A    between atoms: _126  and  _127
REMARK   45  A    between atoms: _130  and  _132
REMARK   46  A    between atoms: _132  and  _133
REMARK   47  A    between atoms: _136  and  _138
REMARK   48  A    between atoms: _138  and  _139
REMARK   49  A    between atoms: _138  and  _141
REMARK   50  A    between atoms: _143  and  _145
REMARK   51  A    between atoms: _145  and  _146
REMARK   52  A    between atoms: _145  and  _148
REMARK   53  A    between atoms: _148  and  _149
REMARK   54  A    between atoms: _154  and  _156
REMARK   55  A    between atoms: _156  and  _157
REMARK   56  A    between atoms: _156  and  _159
REMARK   57  A    between atoms: _159  and  _160
REMARK   58  A    between atoms: _160  and  _161
REMARK   59  A    between atoms: _164  and  _166
REMARK   60  A    between atoms: _166  and  _167
REMARK   61  A    between atoms: _166  and  _169
REMARK   62  A    between atoms: _169  and  _170
REMARK   63  A    between atoms: _170  and  _171
REMARK   64  A    between atoms: _174  and  _176
REMARK   65  A    between atoms: _176  and  _177
REMARK   66  A    between atoms: _176  and  _179
REMARK   67  A    between atoms: _179  and  _180
REMARK   68  A    between atoms: _190  and  _192
REMARK   69  A    between atoms: _192  and  _193
REMARK   70  A    between atoms: _192  and  _195
REMARK   71  A    between atoms: _195  and  _196
REMARK   72  A    between atoms: _199  and  _200
REMARK   73  A    between atoms: _205  and  _207
REMARK   74  A    between atoms: _207  and  _208
REMARK   75  A    between atoms: _207  and  _210
REMARK   76  A    between atoms: _210  and  _211
REMARK   77  A    between atoms: _216  and  _218
REMARK   78  A    between atoms: _218  and  _219
REMARK   79  A    between atoms: _218  and  _221
REMARK   80  A    between atoms: _221  and  _222
REMARK   81  A    between atoms: _232  and  _234
REMARK   82  A    between atoms: _234  and  _235
REMARK   83  A    between atoms: _234  and  _237
REMARK   84  A    between atoms: _237  and  _238
REMARK   85  A    between atoms: _248  and  _250
REMARK   86  A    between atoms: _250  and  _251
REMARK   87  A    between atoms: _250  and  _253
REMARK   88  A    between atoms: _253  and  _254
REMARK   89  A    between atoms: _259  and  _260
REMARK   90  A    between atoms: _262  and  _264
REMARK   91  A    between atoms: _264  and  _265
REMARK   92  A    between atoms: _264  and  _267
REMARK   93  A    between atoms: _267  and  _268
REMARK   94  A    between atoms: _270  and  _272
REMARK   95  A    between atoms: _272  and  _273
REMARK   96  A    between atoms: _272  and  _275
REMARK   97  A    between atoms: _275  and  _276
REMARK   98  A    between atoms: _276  and  _277
REMARK   99  A    between atoms: _280  and  _282
REMARK  100  A    between atoms: _282  and  _283
REMARK  101  A    between atoms: _282  and  _285
REMARK  102  A    between atoms: _285  and  _286
REMARK  103  A    between atoms: _292  and  _294
REMARK  104  A    between atoms: _294  and  _295
REMARK  105  A    between atoms: _297  and  _299
REMARK  106  A    between atoms: _299  and  _300
REMARK  107  A    between atoms: _299  and  _302
REMARK  108  A    between atoms: _302  and  _303
REMARK  109  A    between atoms: _309  and  _311
REMARK  110  A    between atoms: _311  and  _312
REMARK  111  A    between atoms: _311  and  _314
REMARK  112  A    between atoms: _314  and  _315
REMARK  113  A    between atoms: _315  and  _316
REMARK  114  A    between atoms: _321  and  _323
REMARK  115  A    between atoms: _323  and  _324
REMARK  116  A    between atoms: _323  and  _326
REMARK  117  A    between atoms: _326  and  _327
REMARK  118  A    between atoms: _329  and  _331
REMARK  119  A    between atoms: _331  and  _332
REMARK  120  A    between atoms: _331  and  _334
REMARK  121  A    between atoms: _334  and  _335
REMARK  122  A    between atoms: _338  and  _340
REMARK  123  A    between atoms: _340  and  _341
REMARK  124  A    between atoms: _340  and  _343
REMARK  125  A    between atoms: _343  and  _344
REMARK  126  A    between atoms: _354  and  _356
REMARK  127  A    between atoms: _356  and  _357
REMARK  128  A    between atoms: _356  and  _359
REMARK  129  A    between atoms: _359  and  _360
REMARK  130  A    between atoms: _360  and  _361
REMARK  131  A    between atoms: _366  and  _368
REMARK  132  A    between atoms: _368  and  _369
REMARK  133  A    between atoms: _368  and  _371
REMARK  134  A    between atoms: _371  and  _372
REMARK                            x       y       z     vdW  Elec       q    Type
REMARK                         _______ _______ _______ _____ _____    ______ ____
ROOT
ATOM      1  NE  ARG A   1      25.654  39.528   4.044  0.00  0.00    -0.265 N 
ATOM      2  HE  ARG A   1      26.288  39.142   4.772  0.00  0.00    +0.259 HD
ATOM      3  CZ  ARG A   1      26.212  40.201   3.026  0.00  0.00    +0.342 C 
ATOM      4  NH2 ARG A   1      27.569  40.339   2.952  0.00  0.00    -0.292 N 
ATOM      5 HH21 ARG A   1      28.175  39.921   3.687  0.00  0.00    +0.255 HD
ATOM      6 HH22 ARG A   1      27.996  40.862   2.161  0.00  0.00    +0.255 HD
ATOM      7  NH1 ARG A   1      25.430  40.763   2.096  0.00  0.00    -0.292 N 
ATOM      8 HH11 ARG A   1      24.396  40.677   2.165  0.00  0.00    +0.255 HD
ATOM      9 HH12 ARG A   1      25.857  41.286   1.305  0.00  0.00    +0.255 HD
ENDROOT
BRANCH   1  10
ATOM     10  CD  ARG A   1      24.211  39.298   4.203  0.00  0.00    +0.174 C 
BRANCH  10  11
ATOM     11  CG  ARG A   1      23.723  39.938   5.509  0.00  0.00    +0.045 C 
BRANCH  11  12
ATOM     12  CB  ARG A   1      22.140  39.839   5.609  0.00  0.00    +0.029 C 
BRANCH  12  13
ATOM     13  CA  ARG A   1      21.670  39.977   7.060  0.00  0.00    +0.133 C 
BRANCH  13  14
ATOM     14  N   ARG A   1      20.231  40.193   7.138  0.00  0.00    -0.239 NA
ATOM     15  H   ARG A   1      19.773  40.862   6.486  0.00  0.00    +0.142 HD
ENDBRANCH  13  14
BRANCH  13  16
ATOM     16  C   ARG A   1      22.393  41.127   7.754  0.00  0.00    +0.224 C 
ATOM     17  O   ARG A   1      22.217  42.308   7.354  0.00  0.00    -0.287 OA
ENDBRANCH  13  16
ENDBRANCH  12  13
ENDBRANCH  11  12
ENDBRANCH  10  11
ENDBRANCH   1  10
TORSDOF 6
REMARK  Name = ../refined-set-2016/2vl4/2vl4_pocket.pdb
REMARK  134 active torsions:
REMARK  status: ('A' for Active; 'I' for Inactive)
REMARK    1  A    between atoms: _1  and  _3
REMARK    2  A    between atoms: _3  and  _4
REMARK    3  A    between atoms: _3  and  _6
REMARK    4  A    between atoms: _6  and  _7
REMARK    5  A    between atoms: _12  and  _14
REMARK    6  A    between atoms: _14  and  _15
REMARK    7  A    between atoms: _14  and  _17
REMARK    8  A    between atoms: _17  and  _18
REMARK    9  A    between atoms: _28  and  _30
REMARK   10  A    between atoms: _30  and  _31
REMARK   11  A    between atoms: _30  and  _33
REMARK   12  A    between atoms: _33  and  _34
REMARK   13  A    between atoms: _37  and  _39
REMARK   14  A    between atoms: _39  and  _40
REMARK   15  A    between atoms: _39  and  _42
REMARK   16  A    between atoms: _42  and  _43
REMARK   17  A    between atoms: _53  and  _55
REMARK   18  A    between atoms: _55  and  _56
REMARK   19  A    between atoms: _58  and  _60
REMARK   20  A    between atoms: _60  and  _61
REMARK   21  A    between atoms: _60  and  _63
REMARK   22  A    between atoms: _63  and  _64
REMARK   23  A    between atoms: _69  and  _71
REMARK   24  A    between atoms: _71  and  _72
REMARK   25  A    between atoms: _71  and  _74
REMARK   26  A    between atoms: _74  and  _75
REMARK   27  A    between atoms: _78  and  _80
REMARK   28  A    between atoms: _80  and  _81
REMARK   29  A    between atoms: _80  and  _83
REMARK   30  A    between atoms: _83  and  _84
REMARK   31  A    between atoms: _84  and  _85
REMARK   32  A    between atoms: _85  and  _86
REMARK   33  A    between atoms: _95  and  _97
REMARK   34  A    between atoms: _97  and  _98
REMARK   35  A    between atoms: _97  and  _100
REMARK   36  A    between atoms: _100  and  _101
REMARK   37  A    between atoms: _111  and  _113
REMARK   38  A    between atoms: _113  and  _114
REMARK   39  A    between atoms: _116  and  _118
REMARK   40  A    between atoms: _118  and  _119
REMARK   41  A    between atoms: _121  and  _123
REMARK   42  A    between atoms: _123  and  _124
REMARK   43  A    between atoms: _123  and  _126
REMARK   44  A    between atoms: _126  and  _127
REMARK   45  A    between atoms: _130  and  _132
REMARK   46  A    between atoms: _132  and  _133
REMARK   47  A    between atoms: _136  and  _138
REMARK   48  A    between atoms: _138  and  _139
REMARK   49  A    between atoms: _138  and  _141
REMARK   50  A    between atoms: _143  and  _145
REMARK   51  A    between atoms: _145  and  _146
REMARK   52  A    between atoms: _145  and  _148
REMARK   53  A    between atoms: _148  and  _149
REMARK   54  A    between atoms: _154  and  _156
REMARK   55  A    between atoms: _156  and  _157
REMARK   56  A    between atoms: _156  and  _159
REMARK   57  A    between atoms: _159  and  _160
REMARK   58  A    between atoms: _160  and  _161
REMARK   59  A    between atoms: _164  and  _166
REMARK   60  A    between atoms: _166  and  _167
REMARK   61  A    between atoms: _166  and  _169
REMARK   62  A    between atoms: _169  and  _170
REMARK   63  A    between atoms: _170  and  _171
REMARK   64  A    between atoms: _174  and  _176
REMARK   65  A    between atoms: _176  and  _177
REMARK   66  A    between atoms: _176  and  _179
REMARK   67  A    between atoms: _179  and  _180
REMARK   68  A    between atoms: _190  and  _192
REMARK   69  A    between atoms: _192  and  _193
REMARK   70  A    between atoms: _192  and  _195
REMARK   71  A    between atoms: _195  and  _196
REMARK   72  A    between atoms: _199  and  _200
REMARK   73  A    between atoms: _205  and  _207
REMARK   74  A    between atoms: _207  and  _208
REMARK   75  A    between atoms: _207  and  _210
REMARK   76  A    between atoms: _210  and  _211
REMARK   77  A    between atoms: _216  and  _218
REMARK   78  A    between atoms: _218  and  _219
REMARK   79  A    between atoms: _218  and  _221
REMARK   80  A    between atoms: _221  and  _222
REMARK   81  A    between atoms: _232  and  _234
REMARK   82  A    between atoms: _234  and  _235
REMARK   83  A    between atoms: _234  and  _237
REMARK   84  A    between atoms: _237  and  _238
REMARK   85  A    between atoms: _248  and  _250
REMARK   86  A    between atoms: _250  and  _251
REMARK   87  A    between atoms: _250  and  _253
REMARK   88  A    between atoms: _253  and  _254
REMARK   89  A    between atoms: _259  and  _260
REMARK   90  A    between atoms: _262  and  _264
REMARK   91  A    between atoms: _264  and  _265
REMARK   92  A    between atoms: _264  and  _267
REMARK   93  A    between atoms: _267  and  _268
REMARK   94  A    between atoms: _270  and  _272
REMARK   95  A    between atoms: _272  and  _273
REMARK   96  A    between atoms: _272  and  _275
REMARK   97  A    between atoms: _275  and  _276
REMARK   98  A    between atoms: _276  and  _277
REMARK   99  A    between atoms: _280  and  _282
REMARK  100  A    between atoms: _282  and  _283
REMARK  101  A    between atoms: _282  and  _285
REMARK  102  A    between atoms: _285  and  _286
REMARK  103  A    between atoms: _292  and  _294
REMARK  104  A    between atoms: _294  and  _295
REMARK  105  A    between atoms: _297  and  _299
REMARK  106  A    between atoms: _299  and  _300
REMARK  107  A    between atoms: _299  and  _302
REMARK  108  A    between atoms: _302  and  _303
REMARK  109  A    between atoms: _309  and  _311
REMARK  110  A    between atoms: _311  and  _312
REMARK  111  A    between atoms: _311  and  _314
REMARK  112  A    between atoms: _314  and  _315
REMARK  113  A    between atoms: _315  and  _316
REMARK  114  A    between atoms: _321  and  _323
REMARK  115  A    between atoms: _323  and  _324
REMARK  116  A    between atoms: _323  and  _326
REMARK  117  A    between atoms: _326  and  _327
REMARK  118  A    between atoms: _329  and  _331
REMARK  119  A    between atoms: _331  and  _332
REMARK  120  A    between atoms: _331  and  _334
REMARK  121  A    between atoms: _334  and  _335
REMARK  122  A    between atoms: _338  and  _340
REMARK  123  A    between atoms: _340  and  _341
REMARK  124  A    between atoms: _340  and  _343
REMARK  125  A    between atoms: _343  and  _344
REMARK  126  A    between atoms: _354  and  _356
REMARK  127  A    between atoms: _356  and  _357
REMARK  128  A    between atoms: _356  and  _359
REMARK  129  A    between atoms: _359  and  _360
REMARK  130  A    between atoms: _360  and  _361
REMARK  131  A    between atoms: _366  and  _368
REMARK  132  A    between atoms: _368  and  _369
REMARK  133  A    between atoms: _368  and  _371
REMARK  134  A    between atoms: _371  and  _372
REMARK                            x       y       z     vdW  Elec       q    Type
REMARK                         _______ _______ _______ _____ _____    ______ ____
ROOT
ATOM      1  CA  TRP A   1      26.431  42.971   6.877  0.00  0.00    +0.149 C 
ENDROOT
BRANCH   1   2
ATOM      2  C   TRP A   1      27.768  43.328   7.519  0.00  0.00    +0.239 C 
ATOM      3  O   TRP A   1      27.849  44.124   8.471  0.00  0.00    -0.274 OA
ATOM      4  N   GLY A   2      28.821  42.777   6.945  0.00  0.00    -0.296 N 
ATOM      5  H   GLY A   2      28.706  42.319   6.018  0.00  0.00    +0.150 HD
BRANCH   4   6
ATOM      6  CA  GLY A   2      30.152  42.789   7.572  0.00  0.00    +0.176 C 
BRANCH   6   7
ATOM      7  C   GLY A   2      30.982  44.059   7.579  0.00  0.00    +0.243 C 
ATOM      8  O   GLY A   2      32.163  44.028   7.953  0.00  0.00    -0.273 OA
ATOM      9  N   GLY A   3      30.429  45.179   7.144  0.00  0.00    -0.296 N 
ATOM     10  H   GLY A   3      29.524  45.146   6.632  0.00  0.00    +0.150 HD
BRANCH   9  11
ATOM     11  CA  GLY A   3      31.094  46.480   7.383  0.00  0.00    +0.163 C 
BRANCH  11  12
ATOM     12  C   GLY A   3      30.594  47.300   8.551  0.00  0.00    +0.229 C 
ATOM     13  O   GLY A   3      30.997  48.460   8.702  0.00  0.00    -0.286 OA
ENDBRANCH  11  12
ENDBRANCH   9  11
ENDBRANCH   6   7
ENDBRANCH   4   6
ENDBRANCH   1   2
BRANCH   1  14
ATOM     14  N   TRP A   1      25.341  42.794   7.840  0.00  0.00    -0.238 NA
ATOM     15  H   TRP A   1      24.544  43.461   7.800  0.00  0.00    +0.142 HD
ENDBRANCH   1  14
BRANCH   1  16
ATOM     16  CB  TRP A   1      25.983  44.049   5.899  0.00  0.00    +0.054 C 
BRANCH  16  17
ATOM     17  CG  TRP A   1      27.000  44.655   5.016  0.00  0.00    -0.002 A 
ATOM     18  CD2 TRP A   1      27.674  45.907   5.231  0.00  0.00    +0.013 A 
ATOM     19  CE3 TRP A   1      27.657  46.860   6.272  0.00  0.00    +0.001 A 
ATOM     20  CZ3 TRP A   1      28.474  47.978   6.150  0.00  0.00    +0.000 A 
ATOM     21  CH2 TRP A   1      29.293  48.168   5.013  0.00  0.00    +0.001 A 
ATOM     22  CZ2 TRP A   1      29.316  47.265   3.974  0.00  0.00    +0.017 A 
ATOM     23  CE2 TRP A   1      28.513  46.135   4.094  0.00  0.00    +0.056 A 
ATOM     24  NE1 TRP A   1      28.339  45.079   3.236  0.00  0.00    -0.352 N 
ATOM     25  HE1 TRP A   1      28.819  44.956   2.322  0.00  0.00    +0.166 HD
ATOM     26  CD1 TRP A   1      27.409  44.194   3.794  0.00  0.00    +0.068 A 
ENDBRANCH  16  17
ENDBRANCH   1  16
TORSDOF 8
REMARK  Name = ../refined-set-2016/2vl4/2vl4_pocket.pdb
REMARK  134 active torsions:
REMARK  status: ('A' for Active; 'I' for Inactive)
REMARK    1  A    between atoms: _1  and  _3
REMARK    2  A    between atoms: _3  and  _4
REMARK    3  A    between atoms: _3  and  _6
REMARK    4  A    between atoms: _6  and  _7
REMARK    5  A    between atoms: _12  and  _14
REMARK    6  A    between atoms: _14  and  _15
REMARK    7  A    between atoms: _14  and  _17
REMARK    8  A    between atoms: _17  and  _18
REMARK    9  A    between atoms: _28  and  _30
REMARK   10  A    between atoms: _30  and  _31
REMARK   11  A    between atoms: _30  and  _33
REMARK   12  A    between atoms: _33  and  _34
REMARK   13  A    between atoms: _37  and  _39
REMARK   14  A    between atoms: _39  and  _40
REMARK   15  A    between atoms: _39  and  _42
REMARK   16  A    between atoms: _42  and  _43
REMARK   17  A    between atoms: _53  and  _55
REMARK   18  A    between atoms: _55  and  _56
REMARK   19  A    between atoms: _58  and  _60
REMARK   20  A    between atoms: _60  and  _61
REMARK   21  A    between atoms: _60  and  _63
REMARK   22  A    between atoms: _63  and  _64
REMARK   23  A    between atoms: _69  and  _71
REMARK   24  A    between atoms: _71  and  _72
REMARK   25  A    between atoms: _71  and  _74
REMARK   26  A    between atoms: _74  and  _75
REMARK   27  A    between atoms: _78  and  _80
REMARK   28  A    between atoms: _80  and  _81
REMARK   29  A    between atoms: _80  and  _83
REMARK   30  A    between atoms: _83  and  _84
REMARK   31  A    between atoms: _84  and  _85
REMARK   32  A    between atoms: _85  and  _86
REMARK   33  A    between atoms: _95  and  _97
REMARK   34  A    between atoms: _97  and  _98
REMARK   35  A    between atoms: _97  and  _100
REMARK   36  A    between atoms: _100  and  _101
REMARK   37  A    between atoms: _111  and  _113
REMARK   38  A    between atoms: _113  and  _114
REMARK   39  A    between atoms: _116  and  _118
REMARK   40  A    between atoms: _118  and  _119
REMARK   41  A    between atoms: _121  and  _123
REMARK   42  A    between atoms: _123  and  _124
REMARK   43  A    between atoms: _123  and  _126
REMARK   44  A    between atoms: _126  and  _127
REMARK   45  A    between atoms: _130  and  _132
REMARK   46  A    between atoms: _132  and  _133
REMARK   47  A    between atoms: _136  and  _138
REMARK   48  A    between atoms: _138  and  _139
REMARK   49  A    between atoms: _138  and  _141
REMARK   50  A    between atoms: _143  and  _145
REMARK   51  A    between atoms: _145  and  _146
REMARK   52  A    between atoms: _145  and  _148
REMARK   53  A    between atoms: _148  and  _149
REMARK   54  A    between atoms: _154  and  _156
REMARK   55  A    between atoms: _156  and  _157
REMARK   56  A    between atoms: _156  and  _159
REMARK   57  A    between atoms: _159  and  _160
REMARK   58  A    between atoms: _160  and  _161
REMARK   59  A    between atoms: _164  and  _166
REMARK   60  A    between atoms: _166  and  _167
REMARK   61  A    between atoms: _166  and  _169
REMARK   62  A    between atoms: _169  and  _170
REMARK   63  A    between atoms: _170  and  _171
REMARK   64  A    between atoms: _174  and  _176
REMARK   65  A    between atoms: _176  and  _177
REMARK   66  A    between atoms: _176  and  _179
REMARK   67  A    between atoms: _179  and  _180
REMARK   68  A    between atoms: _190  and  _192
REMARK   69  A    between atoms: _192  and  _193
REMARK   70  A    between atoms: _192  and  _195
REMARK   71  A    between atoms: _195  and  _196
REMARK   72  A    between atoms: _199  and  _200
REMARK   73  A    between atoms: _205  and  _207
REMARK   74  A    between atoms: _207  and  _208
REMARK   75  A    between atoms: _207  and  _210
REMARK   76  A    between atoms: _210  and  _211
REMARK   77  A    between atoms: _216  and  _218
REMARK   78  A    between atoms: _218  and  _219
REMARK   79  A    between atoms: _218  and  _221
REMARK   80  A    between atoms: _221  and  _222
REMARK   81  A    between atoms: _232  and  _234
REMARK   82  A    between atoms: _234  and  _235
REMARK   83  A    between atoms: _234  and  _237
REMARK   84  A    between atoms: _237  and  _238
REMARK   85  A    between atoms: _248  and  _250
REMARK   86  A    between atoms: _250  and  _251
REMARK   87  A    between atoms: _250  and  _253
REMARK   88  A    between atoms: _253  and  _254
REMARK   89  A    between atoms: _259  and  _260
REMARK   90  A    between atoms: _262  and  _264
REMARK   91  A    between atoms: _264  and  _265
REMARK   92  A    between atoms: _264  and  _267
REMARK   93  A    between atoms: _267  and  _268
REMARK   94  A    between atoms: _270  and  _272
REMARK   95  A    between atoms: _272  and  _273
REMARK   96  A    between atoms: _272  and  _275
REMARK   97  A    between atoms: _275  and  _276
REMARK   98  A    between atoms: _276  and  _277
REMARK   99  A    between atoms: _280  and  _282
REMARK  100  A    between atoms: _282  and  _283
REMARK  101  A    between atoms: _282  and  _285
REMARK  102  A    between atoms: _285  and  _286
REMARK  103  A    between atoms: _292  and  _294
REMARK  104  A    between atoms: _294  and  _295
REMARK  105  A    between atoms: _297  and  _299
REMARK  106  A    between atoms: _299  and  _300
REMARK  107  A    between atoms: _299  and  _302
REMARK  108  A    between atoms: _302  and  _303
REMARK  109  A    between atoms: _309  and  _311
REMARK  110  A    between atoms: _311  and  _312
REMARK  111  A    between atoms: _311  and  _314
REMARK  112  A    between atoms: _314  and  _315
REMARK  113  A    between atoms: _315  and  _316
REMARK  114  A    between atoms: _321  and  _323
REMARK  115  A    between atoms: _323  and  _324
REMARK  116  A    between atoms: _323  and  _326
REMARK  117  A    between atoms: _326  and  _327
REMARK  118  A    between atoms: _329  and  _331
REMARK  119  A    between atoms: _331  and  _332
REMARK  120  A    between atoms: _331  and  _334
REMARK  121  A    between atoms: _334  and  _335
REMARK  122  A    between atoms: _338  and  _340
REMARK  123  A    between atoms: _340  and  _341
REMARK  124  A    between atoms: _340  and  _343
REMARK  125  A    between atoms: _343  and  _344
REMARK  126  A    between atoms: _354  and  _356
REMARK  127  A    between atoms: _356  and  _357
REMARK  128  A    between atoms: _356  and  _359
REMARK  129  A    between atoms: _359  and  _360
REMARK  130  A    between atoms: _360  and  _361
REMARK  131  A    between atoms: _366  and  _368
REMARK  132  A    between atoms: _368  and  _369
REMARK  133  A    between atoms: _368  and  _371
REMARK  134  A    between atoms: _371  and  _372
REMARK                            x       y       z     vdW  Elec       q    Type
REMARK                         _______ _______ _______ _____ _____    ______ ____
ROOT
ATOM      1  CA  ASP A   1      28.879  38.281   8.678  0.00  0.00    +0.144 C 
ENDROOT
BRANCH   1   2
ATOM      2  N   ASP A   1      27.517  38.162   9.243  0.00  0.00    -0.239 NA
ATOM      3  H   ASP A   1      26.853  38.956   9.139  0.00  0.00    +0.142 HD
ENDBRANCH   1   2
BRANCH   1   4
ATOM      4  C   ASP A   1      29.815  38.524   9.854  0.00  0.00    +0.225 C 
ATOM      5  O   ASP A   1      29.438  39.176  10.846  0.00  0.00    -0.287 OA
ENDBRANCH   1   4
BRANCH   1   6
ATOM      6  CB  ASP A   1      29.015  39.515   7.765  0.00  0.00    +0.139 C 
BRANCH   6   7
ATOM      7  CG  ASP A   1      28.312  39.389   6.410  0.00  0.00    +0.367 C 
ATOM      8  OD2 ASP A   1      27.593  38.396   6.082  0.00  0.00    -0.246 OA
ATOM      9  OD1 ASP A   1      28.481  40.372   5.638  0.00  0.00    -0.246 OA
ENDBRANCH   6   7
ENDBRANCH   1   6
TORSDOF 4
REMARK  Name = ../refined-set-2016/2vl4/2vl4_pocket.pdb
REMARK  134 active torsions:
REMARK  status: ('A' for Active; 'I' for Inactive)
REMARK    1  A    between atoms: _1  and  _3
REMARK    2  A    between atoms: _3  and  _4
REMARK    3  A    between atoms: _3  and  _6
REMARK    4  A    between atoms: _6  and  _7
REMARK    5  A    between atoms: _12  and  _14
REMARK    6  A    between atoms: _14  and  _15
REMARK    7  A    between atoms: _14  and  _17
REMARK    8  A    between atoms: _17  and  _18
REMARK    9  A    between atoms: _28  and  _30
REMARK   10  A    between atoms: _30  and  _31
REMARK   11  A    between atoms: _30  and  _33
REMARK   12  A    between atoms: _33  and  _34
REMARK   13  A    between atoms: _37  and  _39
REMARK   14  A    between atoms: _39  and  _40
REMARK   15  A    between atoms: _39  and  _42
REMARK   16  A    between atoms: _42  and  _43
REMARK   17  A    between atoms: _53  and  _55
REMARK   18  A    between atoms: _55  and  _56
REMARK   19  A    between atoms: _58  and  _60
REMARK   20  A    between atoms: _60  and  _61
REMARK   21  A    between atoms: _60  and  _63
REMARK   22  A    between atoms: _63  and  _64
REMARK   23  A    between atoms: _69  and  _71
REMARK   24  A    between atoms: _71  and  _72
REMARK   25  A    between atoms: _71  and  _74
REMARK   26  A    between atoms: _74  and  _75
REMARK   27  A    between atoms: _78  and  _80
REMARK   28  A    between atoms: _80  and  _81
REMARK   29  A    between atoms: _80  and  _83
REMARK   30  A    between atoms: _83  and  _84
REMARK   31  A    between atoms: _84  and  _85
REMARK   32  A    between atoms: _85  and  _86
REMARK   33  A    between atoms: _95  and  _97
REMARK   34  A    between atoms: _97  and  _98
REMARK   35  A    between atoms: _97  and  _100
REMARK   36  A    between atoms: _100  and  _101
REMARK   37  A    between atoms: _111  and  _113
REMARK   38  A    between atoms: _113  and  _114
REMARK   39  A    between atoms: _116  and  _118
REMARK   40  A    between atoms: _118  and  _119
REMARK   41  A    between atoms: _121  and  _123
REMARK   42  A    between atoms: _123  and  _124
REMARK   43  A    between atoms: _123  and  _126
REMARK   44  A    between atoms: _126  and  _127
REMARK   45  A    between atoms: _130  and  _132
REMARK   46  A    between atoms: _132  and  _133
REMARK   47  A    between atoms: _136  and  _138
REMARK   48  A    between atoms: _138  and  _139
REMARK   49  A    between atoms: _138  and  _141
REMARK   50  A    between atoms: _143  and  _145
REMARK   51  A    between atoms: _145  and  _146
REMARK   52  A    between atoms: _145  and  _148
REMARK   53  A    between atoms: _148  and  _149
REMARK   54  A    between atoms: _154  and  _156
REMARK   55  A    between atoms: _156  and  _157
REMARK   56  A    between atoms: _156  and  _159
REMARK   57  A    between atoms: _159  and  _160
REMARK   58  A    between atoms: _160  and  _161
REMARK   59  A    between atoms: _164  and  _166
REMARK   60  A    between atoms: _166  and  _167
REMARK   61  A    between atoms: _166  and  _169
REMARK   62  A    between atoms: _169  and  _170
REMARK   63  A    between atoms: _170  and  _171
REMARK   64  A    between atoms: _174  and  _176
REMARK   65  A    between atoms: _176  and  _177
REMARK   66  A    between atoms: _176  and  _179
REMARK   67  A    between atoms: _179  and  _180
REMARK   68  A    between atoms: _190  and  _192
REMARK   69  A    between atoms: _192  and  _193
REMARK   70  A    between atoms: _192  and  _195
REMARK   71  A    between atoms: _195  and  _196
REMARK   72  A    between atoms: _199  and  _200
REMARK   73  A    between atoms: _205  and  _207
REMARK   74  A    between atoms: _207  and  _208
REMARK   75  A    between atoms: _207  and  _210
REMARK   76  A    between atoms: _210  and  _211
REMARK   77  A    between atoms: _216  and  _218
REMARK   78  A    between atoms: _218  and  _219
REMARK   79  A    between atoms: _218  and  _221
REMARK   80  A    between atoms: _221  and  _222
REMARK   81  A    between atoms: _232  and  _234
REMARK   82  A    between atoms: _234  and  _235
REMARK   83  A    between atoms: _234  and  _237
REMARK   84  A    between atoms: _237  and  _238
REMARK   85  A    between atoms: _248  and  _250
REMARK   86  A    between atoms: _250  and  _251
REMARK   87  A    between atoms: _250  and  _253
REMARK   88  A    between atoms: _253  and  _254
REMARK   89  A    between atoms: _259  and  _260
REMARK   90  A    between atoms: _262  and  _264
REMARK   91  A    between atoms: _264  and  _265
REMARK   92  A    between atoms: _264  and  _267
REMARK   93  A    between atoms: _267  and  _268
REMARK   94  A    between atoms: _270  and  _272
REMARK   95  A    between atoms: _272  and  _273
REMARK   96  A    between atoms: _272  and  _275
REMARK   97  A    between atoms: _275  and  _276
REMARK   98  A    between atoms: _276  and  _277
REMARK   99  A    between atoms: _280  and  _282
REMARK  100  A    between atoms: _282  and  _283
REMARK  101  A    between atoms: _282  and  _285
REMARK  102  A    between atoms: _285  and  _286
REMARK  103  A    between atoms: _292  and  _294
REMARK  104  A    between atoms: _294  and  _295
REMARK  105  A    between atoms: _297  and  _299
REMARK  106  A    between atoms: _299  and  _300
REMARK  107  A    between atoms: _299  and  _302
REMARK  108  A    between atoms: _302  and  _303
REMARK  109  A    between atoms: _309  and  _311
REMARK  110  A    between atoms: _311  and  _312
REMARK  111  A    between atoms: _311  and  _314
REMARK  112  A    between atoms: _314  and  _315
REMARK  113  A    between atoms: _315  and  _316
REMARK  114  A    between atoms: _321  and  _323
REMARK  115  A    between atoms: _323  and  _324
REMARK  116  A    between atoms: _323  and  _326
REMARK  117  A    between atoms: _326  and  _327
REMARK  118  A    between atoms: _329  and  _331
REMARK  119  A    between atoms: _331  and  _332
REMARK  120  A    between atoms: _331  and  _334
REMARK  121  A    between atoms: _334  and  _335
REMARK  122  A    between atoms: _338  and  _340
REMARK  123  A    between atoms: _340  and  _341
REMARK  124  A    between atoms: _340  and  _343
REMARK  125  A    between atoms: _343  and  _344
REMARK  126  A    between atoms: _354  and  _356
REMARK  127  A    between atoms: _356  and  _357
REMARK  128  A    between atoms: _356  and  _359
REMARK  129  A    between atoms: _359  and  _360
REMARK  130  A    between atoms: _360  and  _361
REMARK  131  A    between atoms: _366  and  _368
REMARK  132  A    between atoms: _368  and  _369
REMARK  133  A    between atoms: _368  and  _371
REMARK  134  A    between atoms: _371  and  _372
REMARK                            x       y       z     vdW  Elec       q    Type
REMARK                         _______ _______ _______ _____ _____    ______ ____
ROOT
ATOM      1  C   ALA A   1      34.897  44.499   2.793  0.00  0.00    +0.238 C 
ATOM      2  O   ALA A   1      35.531  45.533   3.058  0.00  0.00    -0.274 OA
ATOM      3  N   CYS A   2      34.811  43.928   1.587  0.00  0.00    -0.298 N 
ATOM      4  H   CYS A   2      34.428  42.962   1.543  0.00  0.00    +0.150 HD
ENDROOT
BRANCH   1   5
ATOM      5  CA  ALA A   1      34.124  43.827   3.900  0.00  0.00    +0.145 C 
ATOM      6  CB  ALA A   1      32.927  44.745   4.304  0.00  0.00    +0.028 C 
BRANCH   5   7
ATOM      7  N   ALA A   1      34.960  43.530   5.093  0.00  0.00    -0.238 NA
ATOM      8  H   ALA A   1      35.789  44.109   5.338  0.00  0.00    +0.142 HD
ENDBRANCH   5   7
ENDBRANCH   1   5
BRANCH   3   9
ATOM      9  CA  CYS A   2      35.215  44.556   0.309  0.00  0.00    +0.149 C 
BRANCH   9  10
ATOM     10  CB  CYS A   2      34.513  45.890   0.094  0.00  0.00    +0.096 C 
ATOM     11  SG  CYS A   2      32.709  45.825   0.055  0.00  0.00    -0.080 S 
ENDBRANCH   9  10
BRANCH   9  12
ATOM     12  C   CYS A   2      36.700  44.786   0.057  0.00  0.00    +0.228 C 
ATOM     13  O   CYS A   2      37.064  45.358  -0.970  0.00  0.00    -0.286 OA
ENDBRANCH   9  12
ENDBRANCH   3   9
TORSDOF 5
REMARK  Name = ../refined-set-2016/2vl4/2vl4_pocket.pdb
REMARK  134 active torsions:
REMARK  status: ('A' for Active; 'I' for Inactive)
REMARK    1  A    between atoms: _1  and  _3
REMARK    2  A    between atoms: _3  and  _4
REMARK    3  A    between atoms: _3  and  _6
REMARK    4  A    between atoms: _6  and  _7
REMARK    5  A    between atoms: _12  and  _14
REMARK    6  A    between atoms: _14  and  _15
REMARK    7  A    between atoms: _14  and  _17
REMARK    8  A    between atoms: _17  and  _18
REMARK    9  A    between atoms: _28  and  _30
REMARK   10  A    between atoms: _30  and  _31
REMARK   11  A    between atoms: _30  and  _33
REMARK   12  A    between atoms: _33  and  _34
REMARK   13  A    between atoms: _37  and  _39
REMARK   14  A    between atoms: _39  and  _40
REMARK   15  A    between atoms: _39  and  _42
REMARK   16  A    between atoms: _42  and  _43
REMARK   17  A    between atoms: _53  and  _55
REMARK   18  A    between atoms: _55  and  _56
REMARK   19  A    between atoms: _58  and  _60
REMARK   20  A    between atoms: _60  and  _61
REMARK   21  A    between atoms: _60  and  _63
REMARK   22  A    between atoms: _63  and  _64
REMARK   23  A    between atoms: _69  and  _71
REMARK   24  A    between atoms: _71  and  _72
REMARK   25  A    between atoms: _71  and  _74
REMARK   26  A    between atoms: _74  and  _75
REMARK   27  A    between atoms: _78  and  _80
REMARK   28  A    between atoms: _80  and  _81
REMARK   29  A    between atoms: _80  and  _83
REMARK   30  A    between atoms: _83  and  _84
REMARK   31  A    between atoms: _84  and  _85
REMARK   32  A    between atoms: _85  and  _86
REMARK   33  A    between atoms: _95  and  _97
REMARK   34  A    between atoms: _97  and  _98
REMARK   35  A    between atoms: _97  and  _100
REMARK   36  A    between atoms: _100  and  _101
REMARK   37  A    between atoms: _111  and  _113
REMARK   38  A    between atoms: _113  and  _114
REMARK   39  A    between atoms: _116  and  _118
REMARK   40  A    between atoms: _118  and  _119
REMARK   41  A    between atoms: _121  and  _123
REMARK   42  A    between atoms: _123  and  _124
REMARK   43  A    between atoms: _123  and  _126
REMARK   44  A    between atoms: _126  and  _127
REMARK   45  A    between atoms: _130  and  _132
REMARK   46  A    between atoms: _132  and  _133
REMARK   47  A    between atoms: _136  and  _138
REMARK   48  A    between atoms: _138  and  _139
REMARK   49  A    between atoms: _138  and  _141
REMARK   50  A    between atoms: _143  and  _145
REMARK   51  A    between atoms: _145  and  _146
REMARK   52  A    between atoms: _145  and  _148
REMARK   53  A    between atoms: _148  and  _149
REMARK   54  A    between atoms: _154  and  _156
REMARK   55  A    between atoms: _156  and  _157
REMARK   56  A    between atoms: _156  and  _159
REMARK   57  A    between atoms: _159  and  _160
REMARK   58  A    between atoms: _160  and  _161
REMARK   59  A    between atoms: _164  and  _166
REMARK   60  A    between atoms: _166  and  _167
REMARK   61  A    between atoms: _166  and  _169
REMARK   62  A    between atoms: _169  and  _170
REMARK   63  A    between atoms: _170  and  _171
REMARK   64  A    between atoms: _174  and  _176
REMARK   65  A    between atoms: _176  and  _177
REMARK   66  A    between atoms: _176  and  _179
REMARK   67  A    between atoms: _179  and  _180
REMARK   68  A    between atoms: _190  and  _192
REMARK   69  A    between atoms: _192  and  _193
REMARK   70  A    between atoms: _192  and  _195
REMARK   71  A    between atoms: _195  and  _196
REMARK   72  A    between atoms: _199  and  _200
REMARK   73  A    between atoms: _205  and  _207
REMARK   74  A    between atoms: _207  and  _208
REMARK   75  A    between atoms: _207  and  _210
REMARK   76  A    between atoms: _210  and  _211
REMARK   77  A    between atoms: _216  and  _218
REMARK   78  A    between atoms: _218  and  _219
REMARK   79  A    between atoms: _218  and  _221
REMARK   80  A    between atoms: _221  and  _222
REMARK   81  A    between atoms: _232  and  _234
REMARK   82  A    between atoms: _234  and  _235
REMARK   83  A    between atoms: _234  and  _237
REMARK   84  A    between atoms: _237  and  _238
REMARK   85  A    between atoms: _248  and  _250
REMARK   86  A    between atoms: _250  and  _251
REMARK   87  A    between atoms: _250  and  _253
REMARK   88  A    between atoms: _253  and  _254
REMARK   89  A    between atoms: _259  and  _260
REMARK   90  A    between atoms: _262  and  _264
REMARK   91  A    between atoms: _264  and  _265
REMARK   92  A    between atoms: _264  and  _267
REMARK   93  A    between atoms: _267  and  _268
REMARK   94  A    between atoms: _270  and  _272
REMARK   95  A    between atoms: _272  and  _273
REMARK   96  A    between atoms: _272  and  _275
REMARK   97  A    between atoms: _275  and  _276
REMARK   98  A    between atoms: _276  and  _277
REMARK   99  A    between atoms: _280  and  _282
REMARK  100  A    between atoms: _282  and  _283
REMARK  101  A    between atoms: _282  and  _285
REMARK  102  A    between atoms: _285  and  _286
REMARK  103  A    between atoms: _292  and  _294
REMARK  104  A    between atoms: _294  and  _295
REMARK  105  A    between atoms: _297  and  _299
REMARK  106  A    between atoms: _299  and  _300
REMARK  107  A    between atoms: _299  and  _302
REMARK  108  A    between atoms: _302  and  _303
REMARK  109  A    between atoms: _309  and  _311
REMARK  110  A    between atoms: _311  and  _312
REMARK  111  A    between atoms: _311  and  _314
REMARK  112  A    between atoms: _314  and  _315
REMARK  113  A    between atoms: _315  and  _316
REMARK  114  A    between atoms: _321  and  _323
REMARK  115  A    between atoms: _323  and  _324
REMARK  116  A    between atoms: _323  and  _326
REMARK  117  A    between atoms: _326  and  _327
REMARK  118  A    between atoms: _329  and  _331
REMARK  119  A    between atoms: _331  and  _332
REMARK  120  A    between atoms: _331  and  _334
REMARK  121  A    between atoms: _334  and  _335
REMARK  122  A    between atoms: _338  and  _340
REMARK  123  A    between atoms: _340  and  _341
REMARK  124  A    between atoms: _340  and  _343
REMARK  125  A    between atoms: _343  and  _344
REMARK  126  A    between atoms: _354  and  _356
REMARK  127  A    between atoms: _356  and  _357
REMARK  128  A    between atoms: _356  and  _359
REMARK  129  A    between atoms: _359  and  _360
REMARK  130  A    between atoms: _360  and  _361
REMARK  131  A    between atoms: _366  and  _368
REMARK  132  A    between atoms: _368  and  _369
REMARK  133  A    between atoms: _368  and  _371
REMARK  134  A    between atoms: _371  and  _372
REMARK                            x       y       z     vdW  Elec       q    Type
REMARK                         _______ _______ _______ _____ _____    ______ ____
ROOT
ATOM      1  C   ASN A   1      32.237  40.902   1.182  0.00  0.00    +0.239 C 
ATOM      2  O   ASN A   1      33.120  41.789   1.310  0.00  0.00    -0.274 OA
ATOM      3  N   GLU A   2      32.059  40.145   0.093  0.00  0.00    -0.298 N 
ATOM      4  H   GLU A   2      31.508  39.268   0.188  0.00  0.00    +0.150 HD
ENDROOT
BRANCH   1   5
ATOM      5  CA  ASN A   1      31.302  40.582   2.336  0.00  0.00    +0.154 C 
BRANCH   5   6
ATOM      6  N   ASN A   1      32.009  40.039   3.488  0.00  0.00    -0.238 NA
ATOM      7  H   ASN A   1      32.497  40.719   4.106  0.00  0.00    +0.142 HD
ENDBRANCH   5   6
BRANCH   5   8
ATOM      8  CB  ASN A   1      30.644  41.905   2.740  0.00  0.00    +0.111 C 
BRANCH   8   9
ATOM      9  CG  ASN A   1      29.904  42.527   1.608  0.00  0.00    +0.221 C 
ATOM     10  OD1 ASN A   1      28.849  42.023   1.245  0.00  0.00    -0.275 OA
ATOM     11  ND2 ASN A   1      30.409  43.659   1.072  0.00  0.00    -0.329 N 
ATOM     12 HD21 ASN A   1      31.311  44.042   1.420  0.00  0.00    +0.145 HD
ATOM     13 HD22 ASN A   1      29.896  44.148   0.311  0.00  0.00    +0.145 HD
ENDBRANCH   8   9
ENDBRANCH   5   8
ENDBRANCH   1   5
BRANCH   3  14
ATOM     14  CA  GLU A   2      32.608  40.490  -1.250  0.00  0.00    +0.137 C 
BRANCH  14  15
ATOM     15  C   GLU A   2      34.108  40.465  -1.382  0.00  0.00    +0.227 C 
ATOM     16  O   GLU A   2      34.627  40.930  -2.406  0.00  0.00    -0.286 OA
ENDBRANCH  14  15
BRANCH  14  17
ATOM     17  CB  GLU A   2      32.092  41.853  -1.710  0.00  0.00    +0.039 C 
BRANCH  17  18
ATOM     18  CG  GLU A   2      30.633  41.755  -2.157  0.00  0.00    +0.116 C 
BRANCH  18  19
ATOM     19  CD  GLU A   2      29.965  43.126  -2.475  0.00  0.00    +0.365 C 
ATOM     20  OE2 GLU A   2      30.571  44.213  -2.251  0.00  0.00    -0.246 OA
ATOM     21  OE1 GLU A   2      28.801  43.098  -2.936  0.00  0.00    -0.246 OA
ENDBRANCH  18  19
ENDBRANCH  17  18
ENDBRANCH  14  17
ENDBRANCH   3  14
TORSDOF 9
REMARK  Name = ../refined-set-2016/2vl4/2vl4_pocket.pdb
REMARK  134 active torsions:
REMARK  status: ('A' for Active; 'I' for Inactive)
REMARK    1  A    between atoms: _1  and  _3
REMARK    2  A    between atoms: _3  and  _4
REMARK    3  A    between atoms: _3  and  _6
REMARK    4  A    between atoms: _6  and  _7
REMARK    5  A    between atoms: _12  and  _14
REMARK    6  A    between atoms: _14  and  _15
REMARK    7  A    between atoms: _14  and  _17
REMARK    8  A    between atoms: _17  and  _18
REMARK    9  A    between atoms: _28  and  _30
REMARK   10  A    between atoms: _30  and  _31
REMARK   11  A    between atoms: _30  and  _33
REMARK   12  A    between atoms: _33  and  _34
REMARK   13  A    between atoms: _37  and  _39
REMARK   14  A    between atoms: _39  and  _40
REMARK   15  A    between atoms: _39  and  _42
REMARK   16  A    between atoms: _42  and  _43
REMARK   17  A    between atoms: _53  and  _55
REMARK   18  A    between atoms: _55  and  _56
REMARK   19  A    between atoms: _58  and  _60
REMARK   20  A    between atoms: _60  and  _61
REMARK   21  A    between atoms: _60  and  _63
REMARK   22  A    between atoms: _63  and  _64
REMARK   23  A    between atoms: _69  and  _71
REMARK   24  A    between atoms: _71  and  _72
REMARK   25  A    between atoms: _71  and  _74
REMARK   26  A    between atoms: _74  and  _75
REMARK   27  A    between atoms: _78  and  _80
REMARK   28  A    between atoms: _80  and  _81
REMARK   29  A    between atoms: _80  and  _83
REMARK   30  A    between atoms: _83  and  _84
REMARK   31  A    between atoms: _84  and  _85
REMARK   32  A    between atoms: _85  and  _86
REMARK   33  A    between atoms: _95  and  _97
REMARK   34  A    between atoms: _97  and  _98
REMARK   35  A    between atoms: _97  and  _100
REMARK   36  A    between atoms: _100  and  _101
REMARK   37  A    between atoms: _111  and  _113
REMARK   38  A    between atoms: _113  and  _114
REMARK   39  A    between atoms: _116  and  _118
REMARK   40  A    between atoms: _118  and  _119
REMARK   41  A    between atoms: _121  and  _123
REMARK   42  A    between atoms: _123  and  _124
REMARK   43  A    between atoms: _123  and  _126
REMARK   44  A    between atoms: _126  and  _127
REMARK   45  A    between atoms: _130  and  _132
REMARK   46  A    between atoms: _132  and  _133
REMARK   47  A    between atoms: _136  and  _138
REMARK   48  A    between atoms: _138  and  _139
REMARK   49  A    between atoms: _138  and  _141
REMARK   50  A    between atoms: _143  and  _145
REMARK   51  A    between atoms: _145  and  _146
REMARK   52  A    between atoms: _145  and  _148
REMARK   53  A    between atoms: _148  and  _149
REMARK   54  A    between atoms: _154  and  _156
REMARK   55  A    between atoms: _156  and  _157
REMARK   56  A    between atoms: _156  and  _159
REMARK   57  A    between atoms: _159  and  _160
REMARK   58  A    between atoms: _160  and  _161
REMARK   59  A    between atoms: _164  and  _166
REMARK   60  A    between atoms: _166  and  _167
REMARK   61  A    between atoms: _166  and  _169
REMARK   62  A    between atoms: _169  and  _170
REMARK   63  A    between atoms: _170  and  _171
REMARK   64  A    between atoms: _174  and  _176
REMARK   65  A    between atoms: _176  and  _177
REMARK   66  A    between atoms: _176  and  _179
REMARK   67  A    between atoms: _179  and  _180
REMARK   68  A    between atoms: _190  and  _192
REMARK   69  A    between atoms: _192  and  _193
REMARK   70  A    between atoms: _192  and  _195
REMARK   71  A    between atoms: _195  and  _196
REMARK   72  A    between atoms: _199  and  _200
REMARK   73  A    between atoms: _205  and  _207
REMARK   74  A    between atoms: _207  and  _208
REMARK   75  A    between atoms: _207  and  _210
REMARK   76  A    between atoms: _210  and  _211
REMARK   77  A    between atoms: _216  and  _218
REMARK   78  A    between atoms: _218  and  _219
REMARK   79  A    between atoms: _218  and  _221
REMARK   80  A    between atoms: _221  and  _222
REMARK   81  A    between atoms: _232  and  _234
REMARK   82  A    between atoms: _234  and  _235
REMARK   83  A    between atoms: _234  and  _237
REMARK   84  A    between atoms: _237  and  _238
REMARK   85  A    between atoms: _248  and  _250
REMARK   86  A    between atoms: _250  and  _251
REMARK   87  A    between atoms: _250  and  _253
REMARK   88  A    between atoms: _253  and  _254
REMARK   89  A    between atoms: _259  and  _260
REMARK   90  A    between atoms: _262  and  _264
REMARK   91  A    between atoms: _264  and  _265
REMARK   92  A    between atoms: _264  and  _267
REMARK   93  A    between atoms: _267  and  _268
REMARK   94  A    between atoms: _270  and  _272
REMARK   95  A    between atoms: _272  and  _273
REMARK   96  A    between atoms: _272  and  _275
REMARK   97  A    between atoms: _275  and  _276
REMARK   98  A    between atoms: _276  and  _277
REMARK   99  A    between atoms: _280  and  _282
REMARK  100  A    between atoms: _282  and  _283
REMARK  101  A    between atoms: _282  and  _285
REMARK  102  A    between atoms: _285  and  _286
REMARK  103  A    between atoms: _292  and  _294
REMARK  104  A    between atoms: _294  and  _295
REMARK  105  A    between atoms: _297  and  _299
REMARK  106  A    between atoms: _299  and  _300
REMARK  107  A    between atoms: _299  and  _302
REMARK  108  A    between atoms: _302  and  _303
REMARK  109  A    between atoms: _309  and  _311
REMARK  110  A    between atoms: _311  and  _312
REMARK  111  A    between atoms: _311  and  _314
REMARK  112  A    between atoms: _314  and  _315
REMARK  113  A    between atoms: _315  and  _316
REMARK  114  A    between atoms: _321  and  _323
REMARK  115  A    between atoms: _323  and  _324
REMARK  116  A    between atoms: _323  and  _326
REMARK  117  A    between atoms: _326  and  _327
REMARK  118  A    between atoms: _329  and  _331
REMARK  119  A    between atoms: _331  and  _332
REMARK  120  A    between atoms: _331  and  _334
REMARK  121  A    between atoms: _334  and  _335
REMARK  122  A    between atoms: _338  and  _340
REMARK  123  A    between atoms: _340  and  _341
REMARK  124  A    between atoms: _340  and  _343
REMARK  125  A    between atoms: _343  and  _344
REMARK  126  A    between atoms: _354  and  _356
REMARK  127  A    between atoms: _356  and  _357
REMARK  128  A    between atoms: _356  and  _359
REMARK  129  A    between atoms: _359  and  _360
REMARK  130  A    between atoms: _360  and  _361
REMARK  131  A    between atoms: _366  and  _368
REMARK  132  A    between atoms: _368  and  _369
REMARK  133  A    between atoms: _368  and  _371
REMARK  134  A    between atoms: _371  and  _372
REMARK                            x       y       z     vdW  Elec       q    Type
REMARK                         _______ _______ _______ _____ _____    ______ ____
ROOT
ATOM      1  CA  GLU A   1      34.859  38.633  -5.516  0.00  0.00    +0.134 C 
ENDROOT
BRANCH   1   2
ATOM      2  N   GLU A   1      35.293  37.986  -4.283  0.00  0.00    -0.239 NA
ATOM      3  H   GLU A   1      34.623  37.912  -3.491  0.00  0.00    +0.142 HD
ENDBRANCH   1   2
BRANCH   1   4
ATOM      4  C   GLU A   1      35.781  39.795  -5.854  0.00  0.00    +0.224 C 
ATOM      5  O   GLU A   1      36.199  39.936  -7.028  0.00  0.00    -0.287 OA
ENDBRANCH   1   4
BRANCH   1   6
ATOM      6  CB  GLU A   1      33.432  39.158  -5.340  0.00  0.00    +0.037 C 
BRANCH   6   7
ATOM      7  CG  GLU A   1      32.857  39.757  -6.647  0.00  0.00    +0.116 C 
BRANCH   7   8
ATOM      8  CD  GLU A   1      31.375  40.200  -6.536  0.00  0.00    +0.365 C 
ATOM      9  OE2 GLU A   1      30.887  40.479  -5.407  0.00  0.00    -0.246 OA
ATOM     10  OE1 GLU A   1      30.725  40.275  -7.607  0.00  0.00    -0.246 OA
ENDBRANCH   7   8
ENDBRANCH   6   7
ENDBRANCH   1   6
TORSDOF 5
REMARK  Name = ../refined-set-2016/2vl4/2vl4_pocket.pdb
REMARK  134 active torsions:
REMARK  status: ('A' for Active; 'I' for Inactive)
REMARK    1  A    between atoms: _1  and  _3
REMARK    2  A    between atoms: _3  and  _4
REMARK    3  A    between atoms: _3  and  _6
REMARK    4  A    between atoms: _6  and  _7
REMARK    5  A    between atoms: _12  and  _14
REMARK    6  A    between atoms: _14  and  _15
REMARK    7  A    between atoms: _14  and  _17
REMARK    8  A    between atoms: _17  and  _18
REMARK    9  A    between atoms: _28  and  _30
REMARK   10  A    between atoms: _30  and  _31
REMARK   11  A    between atoms: _30  and  _33
REMARK   12  A    between atoms: _33  and  _34
REMARK   13  A    between atoms: _37  and  _39
REMARK   14  A    between atoms: _39  and  _40
REMARK   15  A    between atoms: _39  and  _42
REMARK   16  A    between atoms: _42  and  _43
REMARK   17  A    between atoms: _53  and  _55
REMARK   18  A    between atoms: _55  and  _56
REMARK   19  A    between atoms: _58  and  _60
REMARK   20  A    between atoms: _60  and  _61
REMARK   21  A    between atoms: _60  and  _63
REMARK   22  A    between atoms: _63  and  _64
REMARK   23  A    between atoms: _69  and  _71
REMARK   24  A    between atoms: _71  and  _72
REMARK   25  A    between atoms: _71  and  _74
REMARK   26  A    between atoms: _74  and  _75
REMARK   27  A    between atoms: _78  and  _80
REMARK   28  A    between atoms: _80  and  _81
REMARK   29  A    between atoms: _80  and  _83
REMARK   30  A    between atoms: _83  and  _84
REMARK   31  A    between atoms: _84  and  _85
REMARK   32  A    between atoms: _85  and  _86
REMARK   33  A    between atoms: _95  and  _97
REMARK   34  A    between atoms: _97  and  _98
REMARK   35  A    between atoms: _97  and  _100
REMARK   36  A    between atoms: _100  and  _101
REMARK   37  A    between atoms: _111  and  _113
REMARK   38  A    between atoms: _113  and  _114
REMARK   39  A    between atoms: _116  and  _118
REMARK   40  A    between atoms: _118  and  _119
REMARK   41  A    between atoms: _121  and  _123
REMARK   42  A    between atoms: _123  and  _124
REMARK   43  A    between atoms: _123  and  _126
REMARK   44  A    between atoms: _126  and  _127
REMARK   45  A    between atoms: _130  and  _132
REMARK   46  A    between atoms: _132  and  _133
REMARK   47  A    between atoms: _136  and  _138
REMARK   48  A    between atoms: _138  and  _139
REMARK   49  A    between atoms: _138  and  _141
REMARK   50  A    between atoms: _143  and  _145
REMARK   51  A    between atoms: _145  and  _146
REMARK   52  A    between atoms: _145  and  _148
REMARK   53  A    between atoms: _148  and  _149
REMARK   54  A    between atoms: _154  and  _156
REMARK   55  A    between atoms: _156  and  _157
REMARK   56  A    between atoms: _156  and  _159
REMARK   57  A    between atoms: _159  and  _160
REMARK   58  A    between atoms: _160  and  _161
REMARK   59  A    between atoms: _164  and  _166
REMARK   60  A    between atoms: _166  and  _167
REMARK   61  A    between atoms: _166  and  _169
REMARK   62  A    between atoms: _169  and  _170
REMARK   63  A    between atoms: _170  and  _171
REMARK   64  A    between atoms: _174  and  _176
REMARK   65  A    between atoms: _176  and  _177
REMARK   66  A    between atoms: _176  and  _179
REMARK   67  A    between atoms: _179  and  _180
REMARK   68  A    between atoms: _190  and  _192
REMARK   69  A    between atoms: _192  and  _193
REMARK   70  A    between atoms: _192  and  _195
REMARK   71  A    between atoms: _195  and  _196
REMARK   72  A    between atoms: _199  and  _200
REMARK   73  A    between atoms: _205  and  _207
REMARK   74  A    between atoms: _207  and  _208
REMARK   75  A    between atoms: _207  and  _210
REMARK   76  A    between atoms: _210  and  _211
REMARK   77  A    between atoms: _216  and  _218
REMARK   78  A    between atoms: _218  and  _219
REMARK   79  A    between atoms: _218  and  _221
REMARK   80  A    between atoms: _221  and  _222
REMARK   81  A    between atoms: _232  and  _234
REMARK   82  A    between atoms: _234  and  _235
REMARK   83  A    between atoms: _234  and  _237
REMARK   84  A    between atoms: _237  and  _238
REMARK   85  A    between atoms: _248  and  _250
REMARK   86  A    between atoms: _250  and  _251
REMARK   87  A    between atoms: _250  and  _253
REMARK   88  A    between atoms: _253  and  _254
REMARK   89  A    between atoms: _259  and  _260
REMARK   90  A    between atoms: _262  and  _264
REMARK   91  A    between atoms: _264  and  _265
REMARK   92  A    between atoms: _264  and  _267
REMARK   93  A    between atoms: _267  and  _268
REMARK   94  A    between atoms: _270  and  _272
REMARK   95  A    between atoms: _272  and  _273
REMARK   96  A    between atoms: _272  and  _275
REMARK   97  A    between atoms: _275  and  _276
REMARK   98  A    between atoms: _276  and  _277
REMARK   99  A    between atoms: _280  and  _282
REMARK  100  A    between atoms: _282  and  _283
REMARK  101  A    between atoms: _282  and  _285
REMARK  102  A    between atoms: _285  and  _286
REMARK  103  A    between atoms: _292  and  _294
REMARK  104  A    between atoms: _294  and  _295
REMARK  105  A    between atoms: _297  and  _299
REMARK  106  A    between atoms: _299  and  _300
REMARK  107  A    between atoms: _299  and  _302
REMARK  108  A    between atoms: _302  and  _303
REMARK  109  A    between atoms: _309  and  _311
REMARK  110  A    between atoms: _311  and  _312
REMARK  111  A    between atoms: _311  and  _314
REMARK  112  A    between atoms: _314  and  _315
REMARK  113  A    between atoms: _315  and  _316
REMARK  114  A    between atoms: _321  and  _323
REMARK  115  A    between atoms: _323  and  _324
REMARK  116  A    between atoms: _323  and  _326
REMARK  117  A    between atoms: _326  and  _327
REMARK  118  A    between atoms: _329  and  _331
REMARK  119  A    between atoms: _331  and  _332
REMARK  120  A    between atoms: _331  and  _334
REMARK  121  A    between atoms: _334  and  _335
REMARK  122  A    between atoms: _338  and  _340
REMARK  123  A    between atoms: _340  and  _341
REMARK  124  A    between atoms: _340  and  _343
REMARK  125  A    between atoms: _343  and  _344
REMARK  126  A    between atoms: _354  and  _356
REMARK  127  A    between atoms: _356  and  _357
REMARK  128  A    between atoms: _356  and  _359
REMARK  129  A    between atoms: _359  and  _360
REMARK  130  A    between atoms: _360  and  _361
REMARK  131  A    between atoms: _366  and  _368
REMARK  132  A    between atoms: _368  and  _369
REMARK  133  A    between atoms: _368  and  _371
REMARK  134  A    between atoms: _371  and  _372
REMARK                            x       y       z     vdW  Elec       q    Type
REMARK                         _______ _______ _______ _____ _____    ______ ____
ROOT
ATOM      1  CG  TRP A   1      36.027  44.321  -7.349  0.00  0.00    -0.002 A 
ATOM      2  CD2 TRP A   1      35.351  44.659  -6.128  0.00  0.00    +0.013 A 
ATOM      3  CE3 TRP A   1      35.752  45.263  -4.928  0.00  0.00    +0.001 A 
ATOM      4  CZ3 TRP A   1      34.805  45.410  -3.895  0.00  0.00    +0.000 A 
ATOM      5  CH2 TRP A   1      33.490  44.952  -4.054  0.00  0.00    +0.001 A 
ATOM      6  CZ2 TRP A   1      33.071  44.345  -5.209  0.00  0.00    +0.017 A 
ATOM      7  CE2 TRP A   1      34.008  44.192  -6.243  0.00  0.00    +0.056 A 
ATOM      8  NE1 TRP A   1      33.862  43.642  -7.491  0.00  0.00    -0.352 N 
ATOM      9  HE1 TRP A   1      32.988  43.226  -7.871  0.00  0.00    +0.166 HD
ATOM     10  CD1 TRP A   1      35.067  43.732  -8.161  0.00  0.00    +0.068 A 
ENDROOT
BRANCH   1  11
ATOM     11  CB  TRP A   1      37.497  44.620  -7.711  0.00  0.00    +0.053 C 
BRANCH  11  12
ATOM     12  CA  TRP A   1      37.932  44.075  -9.101  0.00  0.00    +0.137 C 
BRANCH  12  13
ATOM     13  N   TRP A   1      37.955  42.605  -9.172  0.00  0.00    -0.239 NA
ATOM     14  H   TRP A   1      38.361  42.036  -8.402  0.00  0.00    +0.142 HD
ENDBRANCH  12  13
BRANCH  12  15
ATOM     15  C   TRP A   1      39.239  44.706  -9.578  0.00  0.00    +0.224 C 
ATOM     16  O   TRP A   1      39.466  45.900  -9.350  0.00  0.00    -0.287 OA
ENDBRANCH  12  15
ENDBRANCH  11  12
ENDBRANCH   1  11
TORSDOF 4
REMARK  Name = ../refined-set-2016/2vl4/2vl4_pocket.pdb
REMARK  134 active torsions:
REMARK  status: ('A' for Active; 'I' for Inactive)
REMARK    1  A    between atoms: _1  and  _3
REMARK    2  A    between atoms: _3  and  _4
REMARK    3  A    between atoms: _3  and  _6
REMARK    4  A    between atoms: _6  and  _7
REMARK    5  A    between atoms: _12  and  _14
REMARK    6  A    between atoms: _14  and  _15
REMARK    7  A    between atoms: _14  and  _17
REMARK    8  A    between atoms: _17  and  _18
REMARK    9  A    between atoms: _28  and  _30
REMARK   10  A    between atoms: _30  and  _31
REMARK   11  A    between atoms: _30  and  _33
REMARK   12  A    between atoms: _33  and  _34
REMARK   13  A    between atoms: _37  and  _39
REMARK   14  A    between atoms: _39  and  _40
REMARK   15  A    between atoms: _39  and  _42
REMARK   16  A    between atoms: _42  and  _43
REMARK   17  A    between atoms: _53  and  _55
REMARK   18  A    between atoms: _55  and  _56
REMARK   19  A    between atoms: _58  and  _60
REMARK   20  A    between atoms: _60  and  _61
REMARK   21  A    between atoms: _60  and  _63
REMARK   22  A    between atoms: _63  and  _64
REMARK   23  A    between atoms: _69  and  _71
REMARK   24  A    between atoms: _71  and  _72
REMARK   25  A    between atoms: _71  and  _74
REMARK   26  A    between atoms: _74  and  _75
REMARK   27  A    between atoms: _78  and  _80
REMARK   28  A    between atoms: _80  and  _81
REMARK   29  A    between atoms: _80  and  _83
REMARK   30  A    between atoms: _83  and  _84
REMARK   31  A    between atoms: _84  and  _85
REMARK   32  A    between atoms: _85  and  _86
REMARK   33  A    between atoms: _95  and  _97
REMARK   34  A    between atoms: _97  and  _98
REMARK   35  A    between atoms: _97  and  _100
REMARK   36  A    between atoms: _100  and  _101
REMARK   37  A    between atoms: _111  and  _113
REMARK   38  A    between atoms: _113  and  _114
REMARK   39  A    between atoms: _116  and  _118
REMARK   40  A    between atoms: _118  and  _119
REMARK   41  A    between atoms: _121  and  _123
REMARK   42  A    between atoms: _123  and  _124
REMARK   43  A    between atoms: _123  and  _126
REMARK   44  A    between atoms: _126  and  _127
REMARK   45  A    between atoms: _130  and  _132
REMARK   46  A    between atoms: _132  and  _133
REMARK   47  A    between atoms: _136  and  _138
REMARK   48  A    between atoms: _138  and  _139
REMARK   49  A    between atoms: _138  and  _141
REMARK   50  A    between atoms: _143  and  _145
REMARK   51  A    between atoms: _145  and  _146
REMARK   52  A    between atoms: _145  and  _148
REMARK   53  A    between atoms: _148  and  _149
REMARK   54  A    between atoms: _154  and  _156
REMARK   55  A    between atoms: _156  and  _157
REMARK   56  A    between atoms: _156  and  _159
REMARK   57  A    between atoms: _159  and  _160
REMARK   58  A    between atoms: _160  and  _161
REMARK   59  A    between atoms: _164  and  _166
REMARK   60  A    between atoms: _166  and  _167
REMARK   61  A    between atoms: _166  and  _169
REMARK   62  A    between atoms: _169  and  _170
REMARK   63  A    between atoms: _170  and  _171
REMARK   64  A    between atoms: _174  and  _176
REMARK   65  A    between atoms: _176  and  _177
REMARK   66  A    between atoms: _176  and  _179
REMARK   67  A    between atoms: _179  and  _180
REMARK   68  A    between atoms: _190  and  _192
REMARK   69  A    between atoms: _192  and  _193
REMARK   70  A    between atoms: _192  and  _195
REMARK   71  A    between atoms: _195  and  _196
REMARK   72  A    between atoms: _199  and  _200
REMARK   73  A    between atoms: _205  and  _207
REMARK   74  A    between atoms: _207  and  _208
REMARK   75  A    between atoms: _207  and  _210
REMARK   76  A    between atoms: _210  and  _211
REMARK   77  A    between atoms: _216  and  _218
REMARK   78  A    between atoms: _218  and  _219
REMARK   79  A    between atoms: _218  and  _221
REMARK   80  A    between atoms: _221  and  _222
REMARK   81  A    between atoms: _232  and  _234
REMARK   82  A    between atoms: _234  and  _235
REMARK   83  A    between atoms: _234  and  _237
REMARK   84  A    between atoms: _237  and  _238
REMARK   85  A    between atoms: _248  and  _250
REMARK   86  A    between atoms: _250  and  _251
REMARK   87  A    between atoms: _250  and  _253
REMARK   88  A    between atoms: _253  and  _254
REMARK   89  A    between atoms: _259  and  _260
REMARK   90  A    between atoms: _262  and  _264
REMARK   91  A    between atoms: _264  and  _265
REMARK   92  A    between atoms: _264  and  _267
REMARK   93  A    between atoms: _267  and  _268
REMARK   94  A    between atoms: _270  and  _272
REMARK   95  A    between atoms: _272  and  _273
REMARK   96  A    between atoms: _272  and  _275
REMARK   97  A    between atoms: _275  and  _276
REMARK   98  A    between atoms: _276  and  _277
REMARK   99  A    between atoms: _280  and  _282
REMARK  100  A    between atoms: _282  and  _283
REMARK  101  A    between atoms: _282  and  _285
REMARK  102  A    between atoms: _285  and  _286
REMARK  103  A    between atoms: _292  and  _294
REMARK  104  A    between atoms: _294  and  _295
REMARK  105  A    between atoms: _297  and  _299
REMARK  106  A    between atoms: _299  and  _300
REMARK  107  A    between atoms: _299  and  _302
REMARK  108  A    between atoms: _302  and  _303
REMARK  109  A    between atoms: _309  and  _311
REMARK  110  A    between atoms: _311  and  _312
REMARK  111  A    between atoms: _311  and  _314
REMARK  112  A    between atoms: _314  and  _315
REMARK  113  A    between atoms: _315  and  _316
REMARK  114  A    between atoms: _321  and  _323
REMARK  115  A    between atoms: _323  and  _324
REMARK  116  A    between atoms: _323  and  _326
REMARK  117  A    between atoms: _326  and  _327
REMARK  118  A    between atoms: _329  and  _331
REMARK  119  A    between atoms: _331  and  _332
REMARK  120  A    between atoms: _331  and  _334
REMARK  121  A    between atoms: _334  and  _335
REMARK  122  A    between atoms: _338  and  _340
REMARK  123  A    between atoms: _340  and  _341
REMARK  124  A    between atoms: _340  and  _343
REMARK  125  A    between atoms: _343  and  _344
REMARK  126  A    between atoms: _354  and  _356
REMARK  127  A    between atoms: _356  and  _357
REMARK  128  A    between atoms: _356  and  _359
REMARK  129  A    between atoms: _359  and  _360
REMARK  130  A    between atoms: _360  and  _361
REMARK  131  A    between atoms: _366  and  _368
REMARK  132  A    between atoms: _368  and  _369
REMARK  133  A    between atoms: _368  and  _371
REMARK  134  A    between atoms: _371  and  _372
REMARK                            x       y       z     vdW  Elec       q    Type
REMARK                         _______ _______ _______ _____ _____    ______ ____
ROOT
ATOM      1  C   SER A   1      29.333  37.446  -0.792  0.00  0.00    +0.244 C 
ATOM      2  O   SER A   1      29.836  38.515  -0.494  0.00  0.00    -0.273 OA
ATOM      3  N   PRO A   2      29.094  37.144  -2.065  0.00  0.00    -0.273 N 
ATOM      4  CA  PRO A   2      28.707  35.878  -2.650  0.00  0.00    +0.140 C 
ATOM      5  CB  PRO A   2      28.312  36.277  -4.079  0.00  0.00    +0.030 C 
ATOM      6  CG  PRO A   2      29.280  37.462  -4.385  0.00  0.00    +0.024 C 
ATOM      7  CD  PRO A   2      29.481  38.163  -3.069  0.00  0.00    +0.094 C 
ENDROOT
BRANCH   4   8
ATOM      8  C   PRO A   2      29.935  34.924  -2.678  0.00  0.00    +0.227 C 
ATOM      9  O   PRO A   2      31.081  35.356  -2.925  0.00  0.00    -0.286 OA
ENDBRANCH   4   8
BRANCH   1  10
ATOM     10  CA  SER A   1      29.042  36.366   0.264  0.00  0.00    +0.175 C 
BRANCH  10  11
ATOM     11  N   SER A   1      30.315  36.119   0.984  0.00  0.00    -0.236 NA
ATOM     12  H   SER A   1      30.794  36.931   1.424  0.00  0.00    +0.142 HD
ENDBRANCH  10  11
BRANCH  10  13
ATOM     13  CB  SER A   1      27.996  36.884   1.217  0.00  0.00    +0.163 C 
BRANCH  13  14
ATOM     14  OG  SER A   1      26.765  37.161   0.571  0.00  0.00    -0.380 OA
ATOM     15  H   SER A   1      26.417  36.332   0.156  0.00  0.00    +0.211 HD
ENDBRANCH  13  14
ENDBRANCH  10  13
ENDBRANCH   1  10
TORSDOF 5
REMARK  Name = ../refined-set-2016/2vl4/2vl4_pocket.pdb
REMARK  134 active torsions:
REMARK  status: ('A' for Active; 'I' for Inactive)
REMARK    1  A    between atoms: _1  and  _3
REMARK    2  A    between atoms: _3  and  _4
REMARK    3  A    between atoms: _3  and  _6
REMARK    4  A    between atoms: _6  and  _7
REMARK    5  A    between atoms: _12  and  _14
REMARK    6  A    between atoms: _14  and  _15
REMARK    7  A    between atoms: _14  and  _17
REMARK    8  A    between atoms: _17  and  _18
REMARK    9  A    between atoms: _28  and  _30
REMARK   10  A    between atoms: _30  and  _31
REMARK   11  A    between atoms: _30  and  _33
REMARK   12  A    between atoms: _33  and  _34
REMARK   13  A    between atoms: _37  and  _39
REMARK   14  A    between atoms: _39  and  _40
REMARK   15  A    between atoms: _39  and  _42
REMARK   16  A    between atoms: _42  and  _43
REMARK   17  A    between atoms: _53  and  _55
REMARK   18  A    between atoms: _55  and  _56
REMARK   19  A    between atoms: _58  and  _60
REMARK   20  A    between atoms: _60  and  _61
REMARK   21  A    between atoms: _60  and  _63
REMARK   22  A    between atoms: _63  and  _64
REMARK   23  A    between atoms: _69  and  _71
REMARK   24  A    between atoms: _71  and  _72
REMARK   25  A    between atoms: _71  and  _74
REMARK   26  A    between atoms: _74  and  _75
REMARK   27  A    between atoms: _78  and  _80
REMARK   28  A    between atoms: _80  and  _81
REMARK   29  A    between atoms: _80  and  _83
REMARK   30  A    between atoms: _83  and  _84
REMARK   31  A    between atoms: _84  and  _85
REMARK   32  A    between atoms: _85  and  _86
REMARK   33  A    between atoms: _95  and  _97
REMARK   34  A    between atoms: _97  and  _98
REMARK   35  A    between atoms: _97  and  _100
REMARK   36  A    between atoms: _100  and  _101
REMARK   37  A    between atoms: _111  and  _113
REMARK   38  A    between atoms: _113  and  _114
REMARK   39  A    between atoms: _116  and  _118
REMARK   40  A    between atoms: _118  and  _119
REMARK   41  A    between atoms: _121  and  _123
REMARK   42  A    between atoms: _123  and  _124
REMARK   43  A    between atoms: _123  and  _126
REMARK   44  A    between atoms: _126  and  _127
REMARK   45  A    between atoms: _130  and  _132
REMARK   46  A    between atoms: _132  and  _133
REMARK   47  A    between atoms: _136  and  _138
REMARK   48  A    between atoms: _138  and  _139
REMARK   49  A    between atoms: _138  and  _141
REMARK   50  A    between atoms: _143  and  _145
REMARK   51  A    between atoms: _145  and  _146
REMARK   52  A    between atoms: _145  and  _148
REMARK   53  A    between atoms: _148  and  _149
REMARK   54  A    between atoms: _154  and  _156
REMARK   55  A    between atoms: _156  and  _157
REMARK   56  A    between atoms: _156  and  _159
REMARK   57  A    between atoms: _159  and  _160
REMARK   58  A    between atoms: _160  and  _161
REMARK   59  A    between atoms: _164  and  _166
REMARK   60  A    between atoms: _166  and  _167
REMARK   61  A    between atoms: _166  and  _169
REMARK   62  A    between atoms: _169  and  _170
REMARK   63  A    between atoms: _170  and  _171
REMARK   64  A    between atoms: _174  and  _176
REMARK   65  A    between atoms: _176  and  _177
REMARK   66  A    between atoms: _176  and  _179
REMARK   67  A    between atoms: _179  and  _180
REMARK   68  A    between atoms: _190  and  _192
REMARK   69  A    between atoms: _192  and  _193
REMARK   70  A    between atoms: _192  and  _195
REMARK   71  A    between atoms: _195  and  _196
REMARK   72  A    between atoms: _199  and  _200
REMARK   73  A    between atoms: _205  and  _207
REMARK   74  A    between atoms: _207  and  _208
REMARK   75  A    between atoms: _207  and  _210
REMARK   76  A    between atoms: _210  and  _211
REMARK   77  A    between atoms: _216  and  _218
REMARK   78  A    between atoms: _218  and  _219
REMARK   79  A    between atoms: _218  and  _221
REMARK   80  A    between atoms: _221  and  _222
REMARK   81  A    between atoms: _232  and  _234
REMARK   82  A    between atoms: _234  and  _235
REMARK   83  A    between atoms: _234  and  _237
REMARK   84  A    between atoms: _237  and  _238
REMARK   85  A    between atoms: _248  and  _250
REMARK   86  A    between atoms: _250  and  _251
REMARK   87  A    between atoms: _250  and  _253
REMARK   88  A    between atoms: _253  and  _254
REMARK   89  A    between atoms: _259  and  _260
REMARK   90  A    between atoms: _262  and  _264
REMARK   91  A    between atoms: _264  and  _265
REMARK   92  A    between atoms: _264  and  _267
REMARK   93  A    between atoms: _267  and  _268
REMARK   94  A    between atoms: _270  and  _272
REMARK   95  A    between atoms: _272  and  _273
REMARK   96  A    between atoms: _272  and  _275
REMARK   97  A    between atoms: _275  and  _276
REMARK   98  A    between atoms: _276  and  _277
REMARK   99  A    between atoms: _280  and  _282
REMARK  100  A    between atoms: _282  and  _283
REMARK  101  A    between atoms: _282  and  _285
REMARK  102  A    between atoms: _285  and  _286
REMARK  103  A    between atoms: _292  and  _294
REMARK  104  A    between atoms: _294  and  _295
REMARK  105  A    between atoms: _297  and  _299
REMARK  106  A    between atoms: _299  and  _300
REMARK  107  A    between atoms: _299  and  _302
REMARK  108  A    between atoms: _302  and  _303
REMARK  109  A    between atoms: _309  and  _311
REMARK  110  A    between atoms: _311  and  _312
REMARK  111  A    between atoms: _311  and  _314
REMARK  112  A    between atoms: _314  and  _315
REMARK  113  A    between atoms: _315  and  _316
REMARK  114  A    between atoms: _321  and  _323
REMARK  115  A    between atoms: _323  and  _324
REMARK  116  A    between atoms: _323  and  _326
REMARK  117  A    between atoms: _326  and  _327
REMARK  118  A    between atoms: _329  and  _331
REMARK  119  A    between atoms: _331  and  _332
REMARK  120  A    between atoms: _331  and  _334
REMARK  121  A    between atoms: _334  and  _335
REMARK  122  A    between atoms: _338  and  _340
REMARK  123  A    between atoms: _340  and  _341
REMARK  124  A    between atoms: _340  and  _343
REMARK  125  A    between atoms: _343  and  _344
REMARK  126  A    between atoms: _354  and  _356
REMARK  127  A    between atoms: _356  and  _357
REMARK  128  A    between atoms: _356  and  _359
REMARK  129  A    between atoms: _359  and  _360
REMARK  130  A    between atoms: _360  and  _361
REMARK  131  A    between atoms: _366  and  _368
REMARK  132  A    between atoms: _368  and  _369
REMARK  133  A    between atoms: _368  and  _371
REMARK  134  A    between atoms: _371  and  _372
REMARK                            x       y       z     vdW  Elec       q    Type
REMARK                         _______ _______ _______ _____ _____    ______ ____
ROOT
ATOM      1  CB  HIS A   1      26.152  40.572  -4.677  0.00  0.00    +0.072 C 
ENDROOT
BRANCH   1   2
ATOM      2  CG  HIS A   1      26.417  40.213  -3.232  0.00  0.00    +0.082 A 
ATOM      3  ND1 HIS A   1      27.290  40.925  -2.435  0.00  0.00    -0.227 NA
ATOM      4  CE1 HIS A   1      27.364  40.365  -1.240  0.00  0.00    +0.199 A 
ATOM      5  NE2 HIS A   1      26.529  39.343  -1.209  0.00  0.00    -0.221 NA
ATOM      6  CD2 HIS A   1      25.949  39.199  -2.456  0.00  0.00    +0.115 A 
ENDBRANCH   1   2
BRANCH   1   7
ATOM      7  CA  HIS A   1      24.912  39.867  -5.278  0.00  0.00    +0.139 C 
BRANCH   7   8
ATOM      8  N   HIS A   1      25.192  38.460  -5.399  0.00  0.00    -0.239 NA
ATOM      9  H   HIS A   1      26.132  38.139  -5.707  0.00  0.00    +0.142 HD
ENDBRANCH   7   8
BRANCH   7  10
ATOM     10  C   HIS A   1      24.694  40.384  -6.694  0.00  0.00    +0.224 C 
ATOM     11  O   HIS A   1      25.643  40.810  -7.318  0.00  0.00    -0.287 OA
ENDBRANCH   7  10
ENDBRANCH   1   7
TORSDOF 4
REMARK  Name = ../refined-set-2016/2vl4/2vl4_pocket.pdb
REMARK  134 active torsions:
REMARK  status: ('A' for Active; 'I' for Inactive)
REMARK    1  A    between atoms: _1  and  _3
REMARK    2  A    between atoms: _3  and  _4
REMARK    3  A    between atoms: _3  and  _6
REMARK    4  A    between atoms: _6  and  _7
REMARK    5  A    between atoms: _12  and  _14
REMARK    6  A    between atoms: _14  and  _15
REMARK    7  A    between atoms: _14  and  _17
REMARK    8  A    between atoms: _17  and  _18
REMARK    9  A    between atoms: _28  and  _30
REMARK   10  A    between atoms: _30  and  _31
REMARK   11  A    between atoms: _30  and  _33
REMARK   12  A    between atoms: _33  and  _34
REMARK   13  A    between atoms: _37  and  _39
REMARK   14  A    between atoms: _39  and  _40
REMARK   15  A    between atoms: _39  and  _42
REMARK   16  A    between atoms: _42  and  _43
REMARK   17  A    between atoms: _53  and  _55
REMARK   18  A    between atoms: _55  and  _56
REMARK   19  A    between atoms: _58  and  _60
REMARK   20  A    between atoms: _60  and  _61
REMARK   21  A    between atoms: _60  and  _63
REMARK   22  A    between atoms: _63  and  _64
REMARK   23  A    between atoms: _69  and  _71
REMARK   24  A    between atoms: _71  and  _72
REMARK   25  A    between atoms: _71  and  _74
REMARK   26  A    between atoms: _74  and  _75
REMARK   27  A    between atoms: _78  and  _80
REMARK   28  A    between atoms: _80  and  _81
REMARK   29  A    between atoms: _80  and  _83
REMARK   30  A    between atoms: _83  and  _84
REMARK   31  A    between atoms: _84  and  _85
REMARK   32  A    between atoms: _85  and  _86
REMARK   33  A    between atoms: _95  and  _97
REMARK   34  A    between atoms: _97  and  _98
REMARK   35  A    between atoms: _97  and  _100
REMARK   36  A    between atoms: _100  and  _101
REMARK   37  A    between atoms: _111  and  _113
REMARK   38  A    between atoms: _113  and  _114
REMARK   39  A    between atoms: _116  and  _118
REMARK   40  A    between atoms: _118  and  _119
REMARK   41  A    between atoms: _121  and  _123
REMARK   42  A    between atoms: _123  and  _124
REMARK   43  A    between atoms: _123  and  _126
REMARK   44  A    between atoms: _126  and  _127
REMARK   45  A    between atoms: _130  and  _132
REMARK   46  A    between atoms: _132  and  _133
REMARK   47  A    between atoms: _136  and  _138
REMARK   48  A    between atoms: _138  and  _139
REMARK   49  A    between atoms: _138  and  _141
REMARK   50  A    between atoms: _143  and  _145
REMARK   51  A    between atoms: _145  and  _146
REMARK   52  A    between atoms: _145  and  _148
REMARK   53  A    between atoms: _148  and  _149
REMARK   54  A    between atoms: _154  and  _156
REMARK   55  A    between atoms: _156  and  _157
REMARK   56  A    between atoms: _156  and  _159
REMARK   57  A    between atoms: _159  and  _160
REMARK   58  A    between atoms: _160  and  _161
REMARK   59  A    between atoms: _164  and  _166
REMARK   60  A    between atoms: _166  and  _167
REMARK   61  A    between atoms: _166  and  _169
REMARK   62  A    between atoms: _169  and  _170
REMARK   63  A    between atoms: _170  and  _171
REMARK   64  A    between atoms: _174  and  _176
REMARK   65  A    between atoms: _176  and  _177
REMARK   66  A    between atoms: _176  and  _179
REMARK   67  A    between atoms: _179  and  _180
REMARK   68  A    between atoms: _190  and  _192
REMARK   69  A    between atoms: _192  and  _193
REMARK   70  A    between atoms: _192  and  _195
REMARK   71  A    between atoms: _195  and  _196
REMARK   72  A    between atoms: _199  and  _200
REMARK   73  A    between atoms: _205  and  _207
REMARK   74  A    between atoms: _207  and  _208
REMARK   75  A    between atoms: _207  and  _210
REMARK   76  A    between atoms: _210  and  _211
REMARK   77  A    between atoms: _216  and  _218
REMARK   78  A    between atoms: _218  and  _219
REMARK   79  A    between atoms: _218  and  _221
REMARK   80  A    between atoms: _221  and  _222
REMARK   81  A    between atoms: _232  and  _234
REMARK   82  A    between atoms: _234  and  _235
REMARK   83  A    between atoms: _234  and  _237
REMARK   84  A    between atoms: _237  and  _238
REMARK   85  A    between atoms: _248  and  _250
REMARK   86  A    between atoms: _250  and  _251
REMARK   87  A    between atoms: _250  and  _253
REMARK   88  A    between atoms: _253  and  _254
REMARK   89  A    between atoms: _259  and  _260
REMARK   90  A    between atoms: _262  and  _264
REMARK   91  A    between atoms: _264  and  _265
REMARK   92  A    between atoms: _264  and  _267
REMARK   93  A    between atoms: _267  and  _268
REMARK   94  A    between atoms: _270  and  _272
REMARK   95  A    between atoms: _272  and  _273
REMARK   96  A    between atoms: _272  and  _275
REMARK   97  A    between atoms: _275  and  _276
REMARK   98  A    between atoms: _276  and  _277
REMARK   99  A    between atoms: _280  and  _282
REMARK  100  A    between atoms: _282  and  _283
REMARK  101  A    between atoms: _282  and  _285
REMARK  102  A    between atoms: _285  and  _286
REMARK  103  A    between atoms: _292  and  _294
REMARK  104  A    between atoms: _294  and  _295
REMARK  105  A    between atoms: _297  and  _299
REMARK  106  A    between atoms: _299  and  _300
REMARK  107  A    between atoms: _299  and  _302
REMARK  108  A    between atoms: _302  and  _303
REMARK  109  A    between atoms: _309  and  _311
REMARK  110  A    between atoms: _311  and  _312
REMARK  111  A    between atoms: _311  and  _314
REMARK  112  A    between atoms: _314  and  _315
REMARK  113  A    between atoms: _315  and  _316
REMARK  114  A    between atoms: _321  and  _323
REMARK  115  A    between atoms: _323  and  _324
REMARK  116  A    between atoms: _323  and  _326
REMARK  117  A    between atoms: _326  and  _327
REMARK  118  A    between atoms: _329  and  _331
REMARK  119  A    between atoms: _331  and  _332
REMARK  120  A    between atoms: _331  and  _334
REMARK  121  A    between atoms: _334  and  _335
REMARK  122  A    between atoms: _338  and  _340
REMARK  123  A    between atoms: _340  and  _341
REMARK  124  A    between atoms: _340  and  _343
REMARK  125  A    between atoms: _343  and  _344
REMARK  126  A    between atoms: _354  and  _356
REMARK  127  A    between atoms: _356  and  _357
REMARK  128  A    between atoms: _356  and  _359
REMARK  129  A    between atoms: _359  and  _360
REMARK  130  A    between atoms: _360  and  _361
REMARK  131  A    between atoms: _366  and  _368
REMARK  132  A    between atoms: _368  and  _369
REMARK  133  A    between atoms: _368  and  _371
REMARK  134  A    between atoms: _371  and  _372
REMARK                            x       y       z     vdW  Elec       q    Type
REMARK                         _______ _______ _______ _____ _____    ______ ____
ROOT
ATOM      1  CG  TRP A   1      25.383  44.937  -6.964  0.00  0.00    -0.002 A 
ATOM      2  CD1 TRP A   1      25.845  44.085  -6.022  0.00  0.00    +0.068 A 
ATOM      3  NE1 TRP A   1      25.337  44.413  -4.783  0.00  0.00    -0.352 N 
ATOM      4  HE1 TRP A   1      25.559  43.932  -3.888  0.00  0.00    +0.166 HD
ATOM      5  CE2 TRP A   1      24.489  45.481  -4.930  0.00  0.00    +0.056 A 
ATOM      6  CZ2 TRP A   1      23.736  46.178  -3.972  0.00  0.00    +0.017 A 
ATOM      7  CH2 TRP A   1      22.975  47.254  -4.414  0.00  0.00    +0.001 A 
ATOM      8  CZ3 TRP A   1      22.942  47.617  -5.806  0.00  0.00    +0.000 A 
ATOM      9  CE3 TRP A   1      23.704  46.928  -6.737  0.00  0.00    +0.001 A 
ATOM     10  CD2 TRP A   1      24.496  45.836  -6.302  0.00  0.00    +0.013 A 
ENDROOT
BRANCH   1  11
ATOM     11  CB  TRP A   1      25.664  44.895  -8.447  0.00  0.00    +0.053 C 
BRANCH  11  12
ATOM     12  CA  TRP A   1      24.432  44.331  -9.158  0.00  0.00    +0.137 C 
BRANCH  12  13
ATOM     13  N   TRP A   1      24.376  42.902  -9.001  0.00  0.00    -0.239 NA
ATOM     14  H   TRP A   1      25.245  42.339  -9.100  0.00  0.00    +0.142 HD
ENDBRANCH  12  13
BRANCH  12  15
ATOM     15  C   TRP A   1      24.409  44.680 -10.661  0.00  0.00    +0.224 C 
ATOM     16  O   TRP A   1      24.871  45.738 -11.070  0.00  0.00    -0.287 OA
ENDBRANCH  12  15
ENDBRANCH  11  12
ENDBRANCH   1  11
TORSDOF 4
REMARK  Name = ../refined-set-2016/2vl4/2vl4_pocket.pdb
REMARK  134 active torsions:
REMARK  status: ('A' for Active; 'I' for Inactive)
REMARK    1  A    between atoms: _1  and  _3
REMARK    2  A    between atoms: _3  and  _4
REMARK    3  A    between atoms: _3  and  _6
REMARK    4  A    between atoms: _6  and  _7
REMARK    5  A    between atoms: _12  and  _14
REMARK    6  A    between atoms: _14  and  _15
REMARK    7  A    between atoms: _14  and  _17
REMARK    8  A    between atoms: _17  and  _18
REMARK    9  A    between atoms: _28  and  _30
REMARK   10  A    between atoms: _30  and  _31
REMARK   11  A    between atoms: _30  and  _33
REMARK   12  A    between atoms: _33  and  _34
REMARK   13  A    between atoms: _37  and  _39
REMARK   14  A    between atoms: _39  and  _40
REMARK   15  A    between atoms: _39  and  _42
REMARK   16  A    between atoms: _42  and  _43
REMARK   17  A    between atoms: _53  and  _55
REMARK   18  A    between atoms: _55  and  _56
REMARK   19  A    between atoms: _58  and  _60
REMARK   20  A    between atoms: _60  and  _61
REMARK   21  A    between atoms: _60  and  _63
REMARK   22  A    between atoms: _63  and  _64
REMARK   23  A    between atoms: _69  and  _71
REMARK   24  A    between atoms: _71  and  _72
REMARK   25  A    between atoms: _71  and  _74
REMARK   26  A    between atoms: _74  and  _75
REMARK   27  A    between atoms: _78  and  _80
REMARK   28  A    between atoms: _80  and  _81
REMARK   29  A    between atoms: _80  and  _83
REMARK   30  A    between atoms: _83  and  _84
REMARK   31  A    between atoms: _84  and  _85
REMARK   32  A    between atoms: _85  and  _86
REMARK   33  A    between atoms: _95  and  _97
REMARK   34  A    between atoms: _97  and  _98
REMARK   35  A    between atoms: _97  and  _100
REMARK   36  A    between atoms: _100  and  _101
REMARK   37  A    between atoms: _111  and  _113
REMARK   38  A    between atoms: _113  and  _114
REMARK   39  A    between atoms: _116  and  _118
REMARK   40  A    between atoms: _118  and  _119
REMARK   41  A    between atoms: _121  and  _123
REMARK   42  A    between atoms: _123  and  _124
REMARK   43  A    between atoms: _123  and  _126
REMARK   44  A    between atoms: _126  and  _127
REMARK   45  A    between atoms: _130  and  _132
REMARK   46  A    between atoms: _132  and  _133
REMARK   47  A    between atoms: _136  and  _138
REMARK   48  A    between atoms: _138  and  _139
REMARK   49  A    between atoms: _138  and  _141
REMARK   50  A    between atoms: _143  and  _145
REMARK   51  A    between atoms: _145  and  _146
REMARK   52  A    between atoms: _145  and  _148
REMARK   53  A    between atoms: _148  and  _149
REMARK   54  A    between atoms: _154  and  _156
REMARK   55  A    between atoms: _156  and  _157
REMARK   56  A    between atoms: _156  and  _159
REMARK   57  A    between atoms: _159  and  _160
REMARK   58  A    between atoms: _160  and  _161
REMARK   59  A    between atoms: _164  and  _166
REMARK   60  A    between atoms: _166  and  _167
REMARK   61  A    between atoms: _166  and  _169
REMARK   62  A    between atoms: _169  and  _170
REMARK   63  A    between atoms: _170  and  _171
REMARK   64  A    between atoms: _174  and  _176
REMARK   65  A    between atoms: _176  and  _177
REMARK   66  A    between atoms: _176  and  _179
REMARK   67  A    between atoms: _179  and  _180
REMARK   68  A    between atoms: _190  and  _192
REMARK   69  A    between atoms: _192  and  _193
REMARK   70  A    between atoms: _192  and  _195
REMARK   71  A    between atoms: _195  and  _196
REMARK   72  A    between atoms: _199  and  _200
REMARK   73  A    between atoms: _205  and  _207
REMARK   74  A    between atoms: _207  and  _208
REMARK   75  A    between atoms: _207  and  _210
REMARK   76  A    between atoms: _210  and  _211
REMARK   77  A    between atoms: _216  and  _218
REMARK   78  A    between atoms: _218  and  _219
REMARK   79  A    between atoms: _218  and  _221
REMARK   80  A    between atoms: _221  and  _222
REMARK   81  A    between atoms: _232  and  _234
REMARK   82  A    between atoms: _234  and  _235
REMARK   83  A    between atoms: _234  and  _237
REMARK   84  A    between atoms: _237  and  _238
REMARK   85  A    between atoms: _248  and  _250
REMARK   86  A    between atoms: _250  and  _251
REMARK   87  A    between atoms: _250  and  _253
REMARK   88  A    between atoms: _253  and  _254
REMARK   89  A    between atoms: _259  and  _260
REMARK   90  A    between atoms: _262  and  _264
REMARK   91  A    between atoms: _264  and  _265
REMARK   92  A    between atoms: _264  and  _267
REMARK   93  A    between atoms: _267  and  _268
REMARK   94  A    between atoms: _270  and  _272
REMARK   95  A    between atoms: _272  and  _273
REMARK   96  A    between atoms: _272  and  _275
REMARK   97  A    between atoms: _275  and  _276
REMARK   98  A    between atoms: _276  and  _277
REMARK   99  A    between atoms: _280  and  _282
REMARK  100  A    between atoms: _282  and  _283
REMARK  101  A    between atoms: _282  and  _285
REMARK  102  A    between atoms: _285  and  _286
REMARK  103  A    between atoms: _292  and  _294
REMARK  104  A    between atoms: _294  and  _295
REMARK  105  A    between atoms: _297  and  _299
REMARK  106  A    between atoms: _299  and  _300
REMARK  107  A    between atoms: _299  and  _302
REMARK  108  A    between atoms: _302  and  _303
REMARK  109  A    between atoms: _309  and  _311
REMARK  110  A    between atoms: _311  and  _312
REMARK  111  A    between atoms: _311  and  _314
REMARK  112  A    between atoms: _314  and  _315
REMARK  113  A    between atoms: _315  and  _316
REMARK  114  A    between atoms: _321  and  _323
REMARK  115  A    between atoms: _323  and  _324
REMARK  116  A    between atoms: _323  and  _326
REMARK  117  A    between atoms: _326  and  _327
REMARK  118  A    between atoms: _329  and  _331
REMARK  119  A    between atoms: _331  and  _332
REMARK  120  A    between atoms: _331  and  _334
REMARK  121  A    between atoms: _334  and  _335
REMARK  122  A    between atoms: _338  and  _340
REMARK  123  A    between atoms: _340  and  _341
REMARK  124  A    between atoms: _340  and  _343
REMARK  125  A    between atoms: _343  and  _344
REMARK  126  A    between atoms: _354  and  _356
REMARK  127  A    between atoms: _356  and  _357
REMARK  128  A    between atoms: _356  and  _359
REMARK  129  A    between atoms: _359  and  _360
REMARK  130  A    between atoms: _360  and  _361
REMARK  131  A    between atoms: _366  and  _368
REMARK  132  A    between atoms: _368  and  _369
REMARK  133  A    between atoms: _368  and  _371
REMARK  134  A    between atoms: _371  and  _372
REMARK                            x       y       z     vdW  Elec       q    Type
REMARK                         _______ _______ _______ _____ _____    ______ ____
ROOT
ATOM      1  C   TRP A   1      23.649  49.695 -11.379  0.00  0.00    +0.239 C 
ATOM      2  N   TYR A   2      24.652  48.988 -10.836  0.00  0.00    -0.298 N 
ATOM      3  H   TYR A   2      24.459  48.390 -10.008  0.00  0.00    +0.150 HD
ATOM      4  O   TRP A   1      23.803  50.346 -12.395  0.00  0.00    -0.274 OA
ENDROOT
BRANCH   1   5
ATOM      5  CA  TRP A   1      22.253  49.668 -10.725  0.00  0.00    +0.149 C 
BRANCH   5   6
ATOM      6  N   TRP A   1      21.404  48.607 -11.324  0.00  0.00    -0.238 NA
ATOM      7  H   TRP A   1      20.715  48.889 -12.050  0.00  0.00    +0.142 HD
ENDBRANCH   5   6
BRANCH   5   8
ATOM      8  CB  TRP A   1      22.279  49.647  -9.151  0.00  0.00    +0.054 C 
BRANCH   8   9
ATOM      9  CG  TRP A   1      22.954  50.909  -8.624  0.00  0.00    -0.002 A 
ATOM     10  CD1 TRP A   1      24.243  51.016  -8.190  0.00  0.00    +0.068 A 
ATOM     11  NE1 TRP A   1      24.512  52.320  -7.829  0.00  0.00    -0.352 N 
ATOM     12  HE1 TRP A   1      25.418  52.669  -7.456  0.00  0.00    +0.166 HD
ATOM     13  CE2 TRP A   1      23.387  53.084  -8.042  0.00  0.00    +0.056 A 
ATOM     14  CZ2 TRP A   1      23.172  54.465  -7.840  0.00  0.00    +0.017 A 
ATOM     15  CH2 TRP A   1      21.931  54.982  -8.160  0.00  0.00    +0.001 A 
ATOM     16  CZ3 TRP A   1      20.917  54.160  -8.680  0.00  0.00    +0.000 A 
ATOM     17  CE3 TRP A   1      21.119  52.782  -8.857  0.00  0.00    +0.001 A 
ATOM     18  CD2 TRP A   1      22.387  52.231  -8.541  0.00  0.00    +0.013 A 
ENDBRANCH   8   9
ENDBRANCH   5   8
ENDBRANCH   1   5
BRANCH   2  19
ATOM     19  CA  TYR A   2      26.030  49.037 -11.386  0.00  0.00    +0.141 C 
BRANCH  19  20
ATOM     20  C   TYR A   2      26.159  48.625 -12.853  0.00  0.00    +0.227 C 
ATOM     21  O   TYR A   2      26.895  49.285 -13.574  0.00  0.00    -0.286 OA
ENDBRANCH  19  20
BRANCH  19  22
ATOM     22  CB  TYR A   2      27.074  48.309 -10.516  0.00  0.00    +0.054 C 
BRANCH  22  23
ATOM     23  CG  TYR A   2      27.256  48.996  -9.190  0.00  0.00    -0.020 A 
ATOM     24  CD2 TYR A   2      26.804  48.406  -7.977  0.00  0.00    -0.001 A 
ATOM     25  CE2 TYR A   2      26.963  49.090  -6.734  0.00  0.00    +0.036 A 
ATOM     26  CZ  TYR A   2      27.533  50.376  -6.726  0.00  0.00    +0.134 A 
ATOM     27  CE1 TYR A   2      27.954  50.963  -7.917  0.00  0.00    +0.036 A 
ATOM     28  CD1 TYR A   2      27.805  50.271  -9.140  0.00  0.00    -0.001 A 
BRANCH  26  29
ATOM     29  OH  TYR A   2      27.713  51.132  -5.576  0.00  0.00    -0.506 OA
ATOM     30  HH  TYR A   2      28.302  50.642  -4.949  0.00  0.00    +0.292 HD
ENDBRANCH  26  29
ENDBRANCH  22  23
ENDBRANCH  19  22
ENDBRANCH   2  19
TORSDOF 9
REMARK  Name = ../refined-set-2016/2vl4/2vl4_pocket.pdb
REMARK  134 active torsions:
REMARK  status: ('A' for Active; 'I' for Inactive)
REMARK    1  A    between atoms: _1  and  _3
REMARK    2  A    between atoms: _3  and  _4
REMARK    3  A    between atoms: _3  and  _6
REMARK    4  A    between atoms: _6  and  _7
REMARK    5  A    between atoms: _12  and  _14
REMARK    6  A    between atoms: _14  and  _15
REMARK    7  A    between atoms: _14  and  _17
REMARK    8  A    between atoms: _17  and  _18
REMARK    9  A    between atoms: _28  and  _30
REMARK   10  A    between atoms: _30  and  _31
REMARK   11  A    between atoms: _30  and  _33
REMARK   12  A    between atoms: _33  and  _34
REMARK   13  A    between atoms: _37  and  _39
REMARK   14  A    between atoms: _39  and  _40
REMARK   15  A    between atoms: _39  and  _42
REMARK   16  A    between atoms: _42  and  _43
REMARK   17  A    between atoms: _53  and  _55
REMARK   18  A    between atoms: _55  and  _56
REMARK   19  A    between atoms: _58  and  _60
REMARK   20  A    between atoms: _60  and  _61
REMARK   21  A    between atoms: _60  and  _63
REMARK   22  A    between atoms: _63  and  _64
REMARK   23  A    between atoms: _69  and  _71
REMARK   24  A    between atoms: _71  and  _72
REMARK   25  A    between atoms: _71  and  _74
REMARK   26  A    between atoms: _74  and  _75
REMARK   27  A    between atoms: _78  and  _80
REMARK   28  A    between atoms: _80  and  _81
REMARK   29  A    between atoms: _80  and  _83
REMARK   30  A    between atoms: _83  and  _84
REMARK   31  A    between atoms: _84  and  _85
REMARK   32  A    between atoms: _85  and  _86
REMARK   33  A    between atoms: _95  and  _97
REMARK   34  A    between atoms: _97  and  _98
REMARK   35  A    between atoms: _97  and  _100
REMARK   36  A    between atoms: _100  and  _101
REMARK   37  A    between atoms: _111  and  _113
REMARK   38  A    between atoms: _113  and  _114
REMARK   39  A    between atoms: _116  and  _118
REMARK   40  A    between atoms: _118  and  _119
REMARK   41  A    between atoms: _121  and  _123
REMARK   42  A    between atoms: _123  and  _124
REMARK   43  A    between atoms: _123  and  _126
REMARK   44  A    between atoms: _126  and  _127
REMARK   45  A    between atoms: _130  and  _132
REMARK   46  A    between atoms: _132  and  _133
REMARK   47  A    between atoms: _136  and  _138
REMARK   48  A    between atoms: _138  and  _139
REMARK   49  A    between atoms: _138  and  _141
REMARK   50  A    between atoms: _143  and  _145
REMARK   51  A    between atoms: _145  and  _146
REMARK   52  A    between atoms: _145  and  _148
REMARK   53  A    between atoms: _148  and  _149
REMARK   54  A    between atoms: _154  and  _156
REMARK   55  A    between atoms: _156  and  _157
REMARK   56  A    between atoms: _156  and  _159
REMARK   57  A    between atoms: _159  and  _160
REMARK   58  A    between atoms: _160  and  _161
REMARK   59  A    between atoms: _164  and  _166
REMARK   60  A    between atoms: _166  and  _167
REMARK   61  A    between atoms: _166  and  _169
REMARK   62  A    between atoms: _169  and  _170
REMARK   63  A    between atoms: _170  and  _171
REMARK   64  A    between atoms: _174  and  _176
REMARK   65  A    between atoms: _176  and  _177
REMARK   66  A    between atoms: _176  and  _179
REMARK   67  A    between atoms: _179  and  _180
REMARK   68  A    between atoms: _190  and  _192
REMARK   69  A    between atoms: _192  and  _193
REMARK   70  A    between atoms: _192  and  _195
REMARK   71  A    between atoms: _195  and  _196
REMARK   72  A    between atoms: _199  and  _200
REMARK   73  A    between atoms: _205  and  _207
REMARK   74  A    between atoms: _207  and  _208
REMARK   75  A    between atoms: _207  and  _210
REMARK   76  A    between atoms: _210  and  _211
REMARK   77  A    between atoms: _216  and  _218
REMARK   78  A    between atoms: _218  and  _219
REMARK   79  A    between atoms: _218  and  _221
REMARK   80  A    between atoms: _221  and  _222
REMARK   81  A    between atoms: _232  and  _234
REMARK   82  A    between atoms: _234  and  _235
REMARK   83  A    between atoms: _234  and  _237
REMARK   84  A    between atoms: _237  and  _238
REMARK   85  A    between atoms: _248  and  _250
REMARK   86  A    between atoms: _250  and  _251
REMARK   87  A    between atoms: _250  and  _253
REMARK   88  A    between atoms: _253  and  _254
REMARK   89  A    between atoms: _259  and  _260
REMARK   90  A    between atoms: _262  and  _264
REMARK   91  A    between atoms: _264  and  _265
REMARK   92  A    between atoms: _264  and  _267
REMARK   93  A    between atoms: _267  and  _268
REMARK   94  A    between atoms: _270  and  _272
REMARK   95  A    between atoms: _272  and  _273
REMARK   96  A    between atoms: _272  and  _275
REMARK   97  A    between atoms: _275  and  _276
REMARK   98  A    between atoms: _276  and  _277
REMARK   99  A    between atoms: _280  and  _282
REMARK  100  A    between atoms: _282  and  _283
REMARK  101  A    between atoms: _282  and  _285
REMARK  102  A    between atoms: _285  and  _286
REMARK  103  A    between atoms: _292  and  _294
REMARK  104  A    between atoms: _294  and  _295
REMARK  105  A    between atoms: _297  and  _299
REMARK  106  A    between atoms: _299  and  _300
REMARK  107  A    between atoms: _299  and  _302
REMARK  108  A    between atoms: _302  and  _303
REMARK  109  A    between atoms: _309  and  _311
REMARK  110  A    between atoms: _311  and  _312
REMARK  111  A    between atoms: _311  and  _314
REMARK  112  A    between atoms: _314  and  _315
REMARK  113  A    between atoms: _315  and  _316
REMARK  114  A    between atoms: _321  and  _323
REMARK  115  A    between atoms: _323  and  _324
REMARK  116  A    between atoms: _323  and  _326
REMARK  117  A    between atoms: _326  and  _327
REMARK  118  A    between atoms: _329  and  _331
REMARK  119  A    between atoms: _331  and  _332
REMARK  120  A    between atoms: _331  and  _334
REMARK  121  A    between atoms: _334  and  _335
REMARK  122  A    between atoms: _338  and  _340
REMARK  123  A    between atoms: _340  and  _341
REMARK  124  A    between atoms: _340  and  _343
REMARK  125  A    between atoms: _343  and  _344
REMARK  126  A    between atoms: _354  and  _356
REMARK  127  A    between atoms: _356  and  _357
REMARK  128  A    between atoms: _356  and  _359
REMARK  129  A    between atoms: _359  and  _360
REMARK  130  A    between atoms: _360  and  _361
REMARK  131  A    between atoms: _366  and  _368
REMARK  132  A    between atoms: _368  and  _369
REMARK  133  A    between atoms: _368  and  _371
REMARK  134  A    between atoms: _371  and  _372
REMARK                            x       y       z     vdW  Elec       q    Type
REMARK                         _______ _______ _______ _____ _____    ______ ____
ROOT
ATOM      1  C   PHE A   3      19.747  44.797  -4.695  0.00  0.00    +0.241 C 
ATOM      2  O   PHE A   3      19.196  44.858  -3.633  0.00  0.00    -0.273 OA
ATOM      3  N   GLY A   4      19.789  45.862  -5.501  0.00  0.00    -0.295 N 
ATOM      4  H   GLY A   4      20.122  45.787  -6.483  0.00  0.00    +0.150 HD
ENDROOT
BRANCH   3   5
ATOM      5  CA  GLY A   4      19.347  47.131  -4.942  0.00  0.00    +0.176 C 
BRANCH   5   6
ATOM      6  C   GLY A   4      19.247  48.286  -5.917  0.00  0.00    +0.243 C 
ATOM      7  N   PHE A   5      18.667  49.402  -5.465  0.00  0.00    -0.297 N 
ATOM      8  H   PHE A   5      18.334  49.426  -4.480  0.00  0.00    +0.150 HD
ATOM      9  O   GLY A   4      19.706  48.183  -7.019  0.00  0.00    -0.273 OA
BRANCH   7  10
ATOM     10  CA  PHE A   5      18.478  50.602  -6.303  0.00  0.00    +0.153 C 
BRANCH  10  11
ATOM     11  C   PHE A   5      18.340  51.767  -5.356  0.00  0.00    +0.241 C 
ATOM     12  O   PHE A   5      17.714  51.636  -4.296  0.00  0.00    -0.273 OA
ATOM     13  N   GLN A   6      18.981  52.891  -5.701  0.00  0.00    -0.298 N 
ATOM     14  H   GLN A   6      19.522  52.912  -6.589  0.00  0.00    +0.150 HD
BRANCH  13  15
ATOM     15  CA  GLN A   6      18.942  54.091  -4.864  0.00  0.00    +0.137 C 
BRANCH  15  16
ATOM     16  C   GLN A   6      17.681  54.940  -5.014  0.00  0.00    +0.227 C 
ATOM     17  O   GLN A   6      17.046  54.968  -6.093  0.00  0.00    -0.286 OA
ENDBRANCH  15  16
BRANCH  15  18
ATOM     18  CB  GLN A   6      20.090  55.010  -5.194  0.00  0.00    +0.037 C 
BRANCH  18  19
ATOM     19  CG  GLN A   6      21.391  54.718  -4.511  0.00  0.00    +0.087 C 
BRANCH  19  20
ATOM     20  CD  GLN A   6      22.386  55.853  -4.641  0.00  0.00    +0.219 C 
ATOM     21  NE2 GLN A   6      23.553  55.676  -4.021  0.00  0.00    -0.329 N 
ATOM     22 HE21 GLN A   6      23.730  54.802  -3.486  0.00  0.00    +0.145 HD
ATOM     23 HE22 GLN A   6      24.286  56.412  -4.072  0.00  0.00    +0.145 HD
ATOM     24  OE1 GLN A   6      22.131  56.878  -5.289  0.00  0.00    -0.275 OA
ENDBRANCH  19  20
ENDBRANCH  18  19
ENDBRANCH  15  18
ENDBRANCH  13  15
ENDBRANCH  10  11
BRANCH  10  25
ATOM     25  CB  PHE A   5      17.217  50.477  -7.206  0.00  0.00    +0.055 C 
BRANCH  25  26
ATOM     26  CG  PHE A   5      17.174  51.507  -8.307  0.00  0.00    -0.020 A 
ATOM     27  CD2 PHE A   5      16.505  52.711  -8.119  0.00  0.00    -0.004 A 
ATOM     28  CE2 PHE A   5      16.524  53.714  -9.125  0.00  0.00    -0.000 A 
ATOM     29  CZ  PHE A   5      17.232  53.499 -10.307  0.00  0.00    -0.000 A 
ATOM     30  CE1 PHE A   5      17.918  52.310 -10.494  0.00  0.00    -0.000 A 
ATOM     31  CD1 PHE A   5      17.904  51.320  -9.483  0.00  0.00    -0.004 A 
ENDBRANCH  25  26
ENDBRANCH  10  25
ENDBRANCH   7  10
ENDBRANCH   5   6
ENDBRANCH   3   5
BRANCH   1  32
ATOM     32  CA  PHE A   3      20.438  43.492  -5.110  0.00  0.00    +0.153 C 
BRANCH  32  34
ATOM     33  C   GLU A   2      21.566  41.774  -3.786  0.00  0.00    +0.241 C 
ATOM     34  N   PHE A   3      20.670  42.754  -3.844  0.00  0.00    -0.297 N 
ATOM     35  H   PHE A   3      20.126  43.006  -2.994  0.00  0.00    +0.150 HD
ATOM     36  O   GLU A   2      21.939  41.124  -4.753  0.00  0.00    -0.273 OA
BRANCH  33  37
ATOM     37  CA  GLU A   2      22.100  41.438  -2.403  0.00  0.00    +0.149 C 
BRANCH  37  40
ATOM     38  C   SER A   1      22.043  39.440  -0.987  0.00  0.00    +0.241 C 
ATOM     39  O   SER A   1      22.087  40.125   0.047  0.00  0.00    -0.274 OA
ATOM     40  N   GLU A   2      22.146  39.974  -2.204  0.00  0.00    -0.297 N 
ATOM     41  H   GLU A   2      22.261  39.350  -3.028  0.00  0.00    +0.150 HD
BRANCH  38  42
ATOM     42  CA  SER A   1      21.846  37.916  -0.885  0.00  0.00    +0.174 C 
BRANCH  42  43
ATOM     43  N   SER A   1      21.402  37.298  -2.147  0.00  0.00    -0.236 NA
ATOM     44  H   SER A   1      22.097  36.877  -2.796  0.00  0.00    +0.142 HD
ENDBRANCH  42  43
BRANCH  42  45
ATOM     45  CB  SER A   1      23.093  37.194  -0.328  0.00  0.00    +0.163 C 
BRANCH  45  46
ATOM     46  OG  SER A   1      24.094  37.050  -1.318  0.00  0.00    -0.380 OA
ATOM     47  H   SER A   1      24.877  36.585  -0.929  0.00  0.00    +0.211 HD
ENDBRANCH  45  46
ENDBRANCH  42  45
ENDBRANCH  38  42
ENDBRANCH  37  40
BRANCH  37  48
ATOM     48  CB  GLU A   2      23.489  42.122  -2.321  0.00  0.00    +0.041 C 
BRANCH  48  49
ATOM     49  CG  GLU A   2      24.108  42.186  -0.929  0.00  0.00    +0.116 C 
BRANCH  49  50
ATOM     50  CD  GLU A   2      25.366  43.065  -0.893  0.00  0.00    +0.365 C 
ATOM     51  OE2 GLU A   2      26.051  43.091   0.165  0.00  0.00    -0.246 OA
ATOM     52  OE1 GLU A   2      25.628  43.752  -1.919  0.00  0.00    -0.246 OA
ENDBRANCH  49  50
ENDBRANCH  48  49
ENDBRANCH  37  48
ENDBRANCH  33  37
ENDBRANCH  32  34
BRANCH  32  53
ATOM     53  CB  PHE A   3      19.616  42.630  -6.095  0.00  0.00    +0.055 C 
BRANCH  53  54
ATOM     54  CG  PHE A   3      18.092  42.639  -5.833  0.00  0.00    -0.020 A 
ATOM     55  CD2 PHE A   3      17.528  41.964  -4.722  0.00  0.00    -0.004 A 
ATOM     56  CE2 PHE A   3      16.126  41.962  -4.474  0.00  0.00    -0.000 A 
ATOM     57  CZ  PHE A   3      15.274  42.599  -5.359  0.00  0.00    -0.000 A 
ATOM     58  CE1 PHE A   3      15.787  43.262  -6.499  0.00  0.00    -0.000 A 
ATOM     59  CD1 PHE A   3      17.235  43.292  -6.721  0.00  0.00    -0.004 A 
ENDBRANCH  53  54
ENDBRANCH  32  53
ENDBRANCH   1  32
TORSDOF 24
REMARK  Name = ../refined-set-2016/2vl4/2vl4_pocket.pdb
REMARK  134 active torsions:
REMARK  status: ('A' for Active; 'I' for Inactive)
REMARK    1  A    between atoms: _1  and  _3
REMARK    2  A    between atoms: _3  and  _4
REMARK    3  A    between atoms: _3  and  _6
REMARK    4  A    between atoms: _6  and  _7
REMARK    5  A    between atoms: _12  and  _14
REMARK    6  A    between atoms: _14  and  _15
REMARK    7  A    between atoms: _14  and  _17
REMARK    8  A    between atoms: _17  and  _18
REMARK    9  A    between atoms: _28  and  _30
REMARK   10  A    between atoms: _30  and  _31
REMARK   11  A    between atoms: _30  and  _33
REMARK   12  A    between atoms: _33  and  _34
REMARK   13  A    between atoms: _37  and  _39
REMARK   14  A    between atoms: _39  and  _40
REMARK   15  A    between atoms: _39  and  _42
REMARK   16  A    between atoms: _42  and  _43
REMARK   17  A    between atoms: _53  and  _55
REMARK   18  A    between atoms: _55  and  _56
REMARK   19  A    between atoms: _58  and  _60
REMARK   20  A    between atoms: _60  and  _61
REMARK   21  A    between atoms: _60  and  _63
REMARK   22  A    between atoms: _63  and  _64
REMARK   23  A    between atoms: _69  and  _71
REMARK   24  A    between atoms: _71  and  _72
REMARK   25  A    between atoms: _71  and  _74
REMARK   26  A    between atoms: _74  and  _75
REMARK   27  A    between atoms: _78  and  _80
REMARK   28  A    between atoms: _80  and  _81
REMARK   29  A    between atoms: _80  and  _83
REMARK   30  A    between atoms: _83  and  _84
REMARK   31  A    between atoms: _84  and  _85
REMARK   32  A    between atoms: _85  and  _86
REMARK   33  A    between atoms: _95  and  _97
REMARK   34  A    between atoms: _97  and  _98
REMARK   35  A    between atoms: _97  and  _100
REMARK   36  A    between atoms: _100  and  _101
REMARK   37  A    between atoms: _111  and  _113
REMARK   38  A    between atoms: _113  and  _114
REMARK   39  A    between atoms: _116  and  _118
REMARK   40  A    between atoms: _118  and  _119
REMARK   41  A    between atoms: _121  and  _123
REMARK   42  A    between atoms: _123  and  _124
REMARK   43  A    between atoms: _123  and  _126
REMARK   44  A    between atoms: _126  and  _127
REMARK   45  A    between atoms: _130  and  _132
REMARK   46  A    between atoms: _132  and  _133
REMARK   47  A    between atoms: _136  and  _138
REMARK   48  A    between atoms: _138  and  _139
REMARK   49  A    between atoms: _138  and  _141
REMARK   50  A    between atoms: _143  and  _145
REMARK   51  A    between atoms: _145  and  _146
REMARK   52  A    between atoms: _145  and  _148
REMARK   53  A    between atoms: _148  and  _149
REMARK   54  A    between atoms: _154  and  _156
REMARK   55  A    between atoms: _156  and  _157
REMARK   56  A    between atoms: _156  and  _159
REMARK   57  A    between atoms: _159  and  _160
REMARK   58  A    between atoms: _160  and  _161
REMARK   59  A    between atoms: _164  and  _166
REMARK   60  A    between atoms: _166  and  _167
REMARK   61  A    between atoms: _166  and  _169
REMARK   62  A    between atoms: _169  and  _170
REMARK   63  A    between atoms: _170  and  _171
REMARK   64  A    between atoms: _174  and  _176
REMARK   65  A    between atoms: _176  and  _177
REMARK   66  A    between atoms: _176  and  _179
REMARK   67  A    between atoms: _179  and  _180
REMARK   68  A    between atoms: _190  and  _192
REMARK   69  A    between atoms: _192  and  _193
REMARK   70  A    between atoms: _192  and  _195
REMARK   71  A    between atoms: _195  and  _196
REMARK   72  A    between atoms: _199  and  _200
REMARK   73  A    between atoms: _205  and  _207
REMARK   74  A    between atoms: _207  and  _208
REMARK   75  A    between atoms: _207  and  _210
REMARK   76  A    between atoms: _210  and  _211
REMARK   77  A    between atoms: _216  and  _218
REMARK   78  A    between atoms: _218  and  _219
REMARK   79  A    between atoms: _218  and  _221
REMARK   80  A    between atoms: _221  and  _222
REMARK   81  A    between atoms: _232  and  _234
REMARK   82  A    between atoms: _234  and  _235
REMARK   83  A    between atoms: _234  and  _237
REMARK   84  A    between atoms: _237  and  _238
REMARK   85  A    between atoms: _248  and  _250
REMARK   86  A    between atoms: _250  and  _251
REMARK   87  A    between atoms: _250  and  _253
REMARK   88  A    between atoms: _253  and  _254
REMARK   89  A    between atoms: _259  and  _260
REMARK   90  A    between atoms: _262  and  _264
REMARK   91  A    between atoms: _264  and  _265
REMARK   92  A    between atoms: _264  and  _267
REMARK   93  A    between atoms: _267  and  _268
REMARK   94  A    between atoms: _270  and  _272
REMARK   95  A    between atoms: _272  and  _273
REMARK   96  A    between atoms: _272  and  _275
REMARK   97  A    between atoms: _275  and  _276
REMARK   98  A    between atoms: _276  and  _277
REMARK   99  A    between atoms: _280  and  _282
REMARK  100  A    between atoms: _282  and  _283
REMARK  101  A    between atoms: _282  and  _285
REMARK  102  A    between atoms: _285  and  _286
REMARK  103  A    between atoms: _292  and  _294
REMARK  104  A    between atoms: _294  and  _295
REMARK  105  A    between atoms: _297  and  _299
REMARK  106  A    between atoms: _299  and  _300
REMARK  107  A    between atoms: _299  and  _302
REMARK  108  A    between atoms: _302  and  _303
REMARK  109  A    between atoms: _309  and  _311
REMARK  110  A    between atoms: _311  and  _312
REMARK  111  A    between atoms: _311  and  _314
REMARK  112  A    between atoms: _314  and  _315
REMARK  113  A    between atoms: _315  and  _316
REMARK  114  A    between atoms: _321  and  _323
REMARK  115  A    between atoms: _323  and  _324
REMARK  116  A    between atoms: _323  and  _326
REMARK  117  A    between atoms: _326  and  _327
REMARK  118  A    between atoms: _329  and  _331
REMARK  119  A    between atoms: _331  and  _332
REMARK  120  A    between atoms: _331  and  _334
REMARK  121  A    between atoms: _334  and  _335
REMARK  122  A    between atoms: _338  and  _340
REMARK  123  A    between atoms: _340  and  _341
REMARK  124  A    between atoms: _340  and  _343
REMARK  125  A    between atoms: _343  and  _344
REMARK  126  A    between atoms: _354  and  _356
REMARK  127  A    between atoms: _356  and  _357
REMARK  128  A    between atoms: _356  and  _359
REMARK  129  A    between atoms: _359  and  _360
REMARK  130  A    between atoms: _360  and  _361
REMARK  131  A    between atoms: _366  and  _368
REMARK  132  A    between atoms: _368  and  _369
REMARK  133  A    between atoms: _368  and  _371
REMARK  134  A    between atoms: _371  and  _372
REMARK                            x       y       z     vdW  Elec       q    Type
REMARK                         _______ _______ _______ _____ _____    ______ ____
ROOT
ATOM      1  CA  SER A   1      28.118  57.414  -4.734  0.00  0.00    +0.163 C 
ENDROOT
BRANCH   1   2
ATOM      2  N   SER A   1      27.659  58.051  -3.525  0.00  0.00    -0.237 NA
ATOM      3  H   SER A   1      26.691  58.409  -3.395  0.00  0.00    +0.142 HD
ENDBRANCH   1   2
BRANCH   1   4
ATOM      4  C   SER A   1      27.857  58.193  -6.023  0.00  0.00    +0.227 C 
ATOM      5  O   SER A   1      26.998  59.087  -6.057  0.00  0.00    -0.287 OA
ENDBRANCH   1   4
BRANCH   1   6
ATOM      6  CB  SER A   1      27.507  56.024  -4.854  0.00  0.00    +0.162 C 
BRANCH   6   7
ATOM      7  OG  SER A   1      26.554  56.009  -5.916  0.00  0.00    -0.380 OA
ATOM      8  H   SER A   1      26.159  55.104  -5.991  0.00  0.00    +0.211 HD
ENDBRANCH   6   7
ENDBRANCH   1   6
TORSDOF 4
REMARK  Name = ../refined-set-2016/2vl4/2vl4_pocket.pdb
REMARK  134 active torsions:
REMARK  status: ('A' for Active; 'I' for Inactive)
REMARK    1  A    between atoms: _1  and  _3
REMARK    2  A    between atoms: _3  and  _4
REMARK    3  A    between atoms: _3  and  _6
REMARK    4  A    between atoms: _6  and  _7
REMARK    5  A    between atoms: _12  and  _14
REMARK    6  A    between atoms: _14  and  _15
REMARK    7  A    between atoms: _14  and  _17
REMARK    8  A    between atoms: _17  and  _18
REMARK    9  A    between atoms: _28  and  _30
REMARK   10  A    between atoms: _30  and  _31
REMARK   11  A    between atoms: _30  and  _33
REMARK   12  A    between atoms: _33  and  _34
REMARK   13  A    between atoms: _37  and  _39
REMARK   14  A    between atoms: _39  and  _40
REMARK   15  A    between atoms: _39  and  _42
REMARK   16  A    between atoms: _42  and  _43
REMARK   17  A    between atoms: _53  and  _55
REMARK   18  A    between atoms: _55  and  _56
REMARK   19  A    between atoms: _58  and  _60
REMARK   20  A    between atoms: _60  and  _61
REMARK   21  A    between atoms: _60  and  _63
REMARK   22  A    between atoms: _63  and  _64
REMARK   23  A    between atoms: _69  and  _71
REMARK   24  A    between atoms: _71  and  _72
REMARK   25  A    between atoms: _71  and  _74
REMARK   26  A    between atoms: _74  and  _75
REMARK   27  A    between atoms: _78  and  _80
REMARK   28  A    between atoms: _80  and  _81
REMARK   29  A    between atoms: _80  and  _83
REMARK   30  A    between atoms: _83  and  _84
REMARK   31  A    between atoms: _84  and  _85
REMARK   32  A    between atoms: _85  and  _86
REMARK   33  A    between atoms: _95  and  _97
REMARK   34  A    between atoms: _97  and  _98
REMARK   35  A    between atoms: _97  and  _100
REMARK   36  A    between atoms: _100  and  _101
REMARK   37  A    between atoms: _111  and  _113
REMARK   38  A    between atoms: _113  and  _114
REMARK   39  A    between atoms: _116  and  _118
REMARK   40  A    between atoms: _118  and  _119
REMARK   41  A    between atoms: _121  and  _123
REMARK   42  A    between atoms: _123  and  _124
REMARK   43  A    between atoms: _123  and  _126
REMARK   44  A    between atoms: _126  and  _127
REMARK   45  A    between atoms: _130  and  _132
REMARK   46  A    between atoms: _132  and  _133
REMARK   47  A    between atoms: _136  and  _138
REMARK   48  A    between atoms: _138  and  _139
REMARK   49  A    between atoms: _138  and  _141
REMARK   50  A    between atoms: _143  and  _145
REMARK   51  A    between atoms: _145  and  _146
REMARK   52  A    between atoms: _145  and  _148
REMARK   53  A    between atoms: _148  and  _149
REMARK   54  A    between atoms: _154  and  _156
REMARK   55  A    between atoms: _156  and  _157
REMARK   56  A    between atoms: _156  and  _159
REMARK   57  A    between atoms: _159  and  _160
REMARK   58  A    between atoms: _160  and  _161
REMARK   59  A    between atoms: _164  and  _166
REMARK   60  A    between atoms: _166  and  _167
REMARK   61  A    between atoms: _166  and  _169
REMARK   62  A    between atoms: _169  and  _170
REMARK   63  A    between atoms: _170  and  _171
REMARK   64  A    between atoms: _174  and  _176
REMARK   65  A    between atoms: _176  and  _177
REMARK   66  A    between atoms: _176  and  _179
REMARK   67  A    between atoms: _179  and  _180
REMARK   68  A    between atoms: _190  and  _192
REMARK   69  A    between atoms: _192  and  _193
REMARK   70  A    between atoms: _192  and  _195
REMARK   71  A    between atoms: _195  and  _196
REMARK   72  A    between atoms: _199  and  _200
REMARK   73  A    between atoms: _205  and  _207
REMARK   74  A    between atoms: _207  and  _208
REMARK   75  A    between atoms: _207  and  _210
REMARK   76  A    between atoms: _210  and  _211
REMARK   77  A    between atoms: _216  and  _218
REMARK   78  A    between atoms: _218  and  _219
REMARK   79  A    between atoms: _218  and  _221
REMARK   80  A    between atoms: _221  and  _222
REMARK   81  A    between atoms: _232  and  _234
REMARK   82  A    between atoms: _234  and  _235
REMARK   83  A    between atoms: _234  and  _237
REMARK   84  A    between atoms: _237  and  _238
REMARK   85  A    between atoms: _248  and  _250
REMARK   86  A    between atoms: _250  and  _251
REMARK   87  A    between atoms: _250  and  _253
REMARK   88  A    between atoms: _253  and  _254
REMARK   89  A    between atoms: _259  and  _260
REMARK   90  A    between atoms: _262  and  _264
REMARK   91  A    between atoms: _264  and  _265
REMARK   92  A    between atoms: _264  and  _267
REMARK   93  A    between atoms: _267  and  _268
REMARK   94  A    between atoms: _270  and  _272
REMARK   95  A    between atoms: _272  and  _273
REMARK   96  A    between atoms: _272  and  _275
REMARK   97  A    between atoms: _275  and  _276
REMARK   98  A    between atoms: _276  and  _277
REMARK   99  A    between atoms: _280  and  _282
REMARK  100  A    between atoms: _282  and  _283
REMARK  101  A    between atoms: _282  and  _285
REMARK  102  A    between atoms: _285  and  _286
REMARK  103  A    between atoms: _292  and  _294
REMARK  104  A    between atoms: _294  and  _295
REMARK  105  A    between atoms: _297  and  _299
REMARK  106  A    between atoms: _299  and  _300
REMARK  107  A    between atoms: _299  and  _302
REMARK  108  A    between atoms: _302  and  _303
REMARK  109  A    between atoms: _309  and  _311
REMARK  110  A    between atoms: _311  and  _312
REMARK  111  A    between atoms: _311  and  _314
REMARK  112  A    between atoms: _314  and  _315
REMARK  113  A    between atoms: _315  and  _316
REMARK  114  A    between atoms: _321  and  _323
REMARK  115  A    between atoms: _323  and  _324
REMARK  116  A    between atoms: _323  and  _326
REMARK  117  A    between atoms: _326  and  _327
REMARK  118  A    between atoms: _329  and  _331
REMARK  119  A    between atoms: _331  and  _332
REMARK  120  A    between atoms: _331  and  _334
REMARK  121  A    between atoms: _334  and  _335
REMARK  122  A    between atoms: _338  and  _340
REMARK  123  A    between atoms: _340  and  _341
REMARK  124  A    between atoms: _340  and  _343
REMARK  125  A    between atoms: _343  and  _344
REMARK  126  A    between atoms: _354  and  _356
REMARK  127  A    between atoms: _356  and  _357
REMARK  128  A    between atoms: _356  and  _359
REMARK  129  A    between atoms: _359  and  _360
REMARK  130  A    between atoms: _360  and  _361
REMARK  131  A    between atoms: _366  and  _368
REMARK  132  A    between atoms: _368  and  _369
REMARK  133  A    between atoms: _368  and  _371
REMARK  134  A    between atoms: _371  and  _372
REMARK                            x       y       z     vdW  Elec       q    Type
REMARK                         _______ _______ _______ _____ _____    ______ ____
ROOT
ATOM      1  CA  ILE A   1      27.563  57.575 -10.070  0.00  0.00    +0.133 C 
ENDROOT
BRANCH   1   2
ATOM      2  N   ILE A   1      27.876  58.764  -9.213  0.00  0.00    -0.239 NA
ATOM      3  H   ILE A   1      27.008  59.213  -8.856  0.00  0.00    +0.142 HD
ENDBRANCH   1   2
BRANCH   1   4
ATOM      4  CB  ILE A   1      27.935  56.115  -9.675  0.00  0.00    +0.023 C 
ATOM      5  CG2 ILE A   1      26.792  55.401  -8.942  0.00  0.00    +0.002 C 
BRANCH   4   6
ATOM      6  CG1 ILE A   1      28.047  55.316 -10.950  0.00  0.00    +0.002 C 
ATOM      7  CD1 ILE A   1      27.843  53.796 -10.786  0.00  0.00    +0.000 C 
ENDBRANCH   4   6
ENDBRANCH   1   4
BRANCH   1   8
ATOM      8  C   ILE A   1      26.051  57.714  -9.977  0.00  0.00    +0.224 C 
ATOM      9  O   ILE A   1      25.306  57.636 -10.967  0.00  0.00    -0.287 OA
ENDBRANCH   1   8
TORSDOF 4
REMARK  Name = ../refined-set-2016/2vl4/2vl4_pocket.pdb
REMARK  134 active torsions:
REMARK  status: ('A' for Active; 'I' for Inactive)
REMARK    1  A    between atoms: _1  and  _3
REMARK    2  A    between atoms: _3  and  _4
REMARK    3  A    between atoms: _3  and  _6
REMARK    4  A    between atoms: _6  and  _7
REMARK    5  A    between atoms: _12  and  _14
REMARK    6  A    between atoms: _14  and  _15
REMARK    7  A    between atoms: _14  and  _17
REMARK    8  A    between atoms: _17  and  _18
REMARK    9  A    between atoms: _28  and  _30
REMARK   10  A    between atoms: _30  and  _31
REMARK   11  A    between atoms: _30  and  _33
REMARK   12  A    between atoms: _33  and  _34
REMARK   13  A    between atoms: _37  and  _39
REMARK   14  A    between atoms: _39  and  _40
REMARK   15  A    between atoms: _39  and  _42
REMARK   16  A    between atoms: _42  and  _43
REMARK   17  A    between atoms: _53  and  _55
REMARK   18  A    between atoms: _55  and  _56
REMARK   19  A    between atoms: _58  and  _60
REMARK   20  A    between atoms: _60  and  _61
REMARK   21  A    between atoms: _60  and  _63
REMARK   22  A    between atoms: _63  and  _64
REMARK   23  A    between atoms: _69  and  _71
REMARK   24  A    between atoms: _71  and  _72
REMARK   25  A    between atoms: _71  and  _74
REMARK   26  A    between atoms: _74  and  _75
REMARK   27  A    between atoms: _78  and  _80
REMARK   28  A    between atoms: _80  and  _81
REMARK   29  A    between atoms: _80  and  _83
REMARK   30  A    between atoms: _83  and  _84
REMARK   31  A    between atoms: _84  and  _85
REMARK   32  A    between atoms: _85  and  _86
REMARK   33  A    between atoms: _95  and  _97
REMARK   34  A    between atoms: _97  and  _98
REMARK   35  A    between atoms: _97  and  _100
REMARK   36  A    between atoms: _100  and  _101
REMARK   37  A    between atoms: _111  and  _113
REMARK   38  A    between atoms: _113  and  _114
REMARK   39  A    between atoms: _116  and  _118
REMARK   40  A    between atoms: _118  and  _119
REMARK   41  A    between atoms: _121  and  _123
REMARK   42  A    between atoms: _123  and  _124
REMARK   43  A    between atoms: _123  and  _126
REMARK   44  A    between atoms: _126  and  _127
REMARK   45  A    between atoms: _130  and  _132
REMARK   46  A    between atoms: _132  and  _133
REMARK   47  A    between atoms: _136  and  _138
REMARK   48  A    between atoms: _138  and  _139
REMARK   49  A    between atoms: _138  and  _141
REMARK   50  A    between atoms: _143  and  _145
REMARK   51  A    between atoms: _145  and  _146
REMARK   52  A    between atoms: _145  and  _148
REMARK   53  A    between atoms: _148  and  _149
REMARK   54  A    between atoms: _154  and  _156
REMARK   55  A    between atoms: _156  and  _157
REMARK   56  A    between atoms: _156  and  _159
REMARK   57  A    between atoms: _159  and  _160
REMARK   58  A    between atoms: _160  and  _161
REMARK   59  A    between atoms: _164  and  _166
REMARK   60  A    between atoms: _166  and  _167
REMARK   61  A    between atoms: _166  and  _169
REMARK   62  A    between atoms: _169  and  _170
REMARK   63  A    between atoms: _170  and  _171
REMARK   64  A    between atoms: _174  and  _176
REMARK   65  A    between atoms: _176  and  _177
REMARK   66  A    between atoms: _176  and  _179
REMARK   67  A    between atoms: _179  and  _180
REMARK   68  A    between atoms: _190  and  _192
REMARK   69  A    between atoms: _192  and  _193
REMARK   70  A    between atoms: _192  and  _195
REMARK   71  A    between atoms: _195  and  _196
REMARK   72  A    between atoms: _199  and  _200
REMARK   73  A    between atoms: _205  and  _207
REMARK   74  A    between atoms: _207  and  _208
REMARK   75  A    between atoms: _207  and  _210
REMARK   76  A    between atoms: _210  and  _211
REMARK   77  A    between atoms: _216  and  _218
REMARK   78  A    between atoms: _218  and  _219
REMARK   79  A    between atoms: _218  and  _221
REMARK   80  A    between atoms: _221  and  _222
REMARK   81  A    between atoms: _232  and  _234
REMARK   82  A    between atoms: _234  and  _235
REMARK   83  A    between atoms: _234  and  _237
REMARK   84  A    between atoms: _237  and  _238
REMARK   85  A    between atoms: _248  and  _250
REMARK   86  A    between atoms: _250  and  _251
REMARK   87  A    between atoms: _250  and  _253
REMARK   88  A    between atoms: _253  and  _254
REMARK   89  A    between atoms: _259  and  _260
REMARK   90  A    between atoms: _262  and  _264
REMARK   91  A    between atoms: _264  and  _265
REMARK   92  A    between atoms: _264  and  _267
REMARK   93  A    between atoms: _267  and  _268
REMARK   94  A    between atoms: _270  and  _272
REMARK   95  A    between atoms: _272  and  _273
REMARK   96  A    between atoms: _272  and  _275
REMARK   97  A    between atoms: _275  and  _276
REMARK   98  A    between atoms: _276  and  _277
REMARK   99  A    between atoms: _280  and  _282
REMARK  100  A    between atoms: _282  and  _283
REMARK  101  A    between atoms: _282  and  _285
REMARK  102  A    between atoms: _285  and  _286
REMARK  103  A    between atoms: _292  and  _294
REMARK  104  A    between atoms: _294  and  _295
REMARK  105  A    between atoms: _297  and  _299
REMARK  106  A    between atoms: _299  and  _300
REMARK  107  A    between atoms: _299  and  _302
REMARK  108  A    between atoms: _302  and  _303
REMARK  109  A    between atoms: _309  and  _311
REMARK  110  A    between atoms: _311  and  _312
REMARK  111  A    between atoms: _311  and  _314
REMARK  112  A    between atoms: _314  and  _315
REMARK  113  A    between atoms: _315  and  _316
REMARK  114  A    between atoms: _321  and  _323
REMARK  115  A    between atoms: _323  and  _324
REMARK  116  A    between atoms: _323  and  _326
REMARK  117  A    between atoms: _326  and  _327
REMARK  118  A    between atoms: _329  and  _331
REMARK  119  A    between atoms: _331  and  _332
REMARK  120  A    between atoms: _331  and  _334
REMARK  121  A    between atoms: _334  and  _335
REMARK  122  A    between atoms: _338  and  _340
REMARK  123  A    between atoms: _340  and  _341
REMARK  124  A    between atoms: _340  and  _343
REMARK  125  A    between atoms: _343  and  _344
REMARK  126  A    between atoms: _354  and  _356
REMARK  127  A    between atoms: _356  and  _357
REMARK  128  A    between atoms: _356  and  _359
REMARK  129  A    between atoms: _359  and  _360
REMARK  130  A    between atoms: _360  and  _361
REMARK  131  A    between atoms: _366  and  _368
REMARK  132  A    between atoms: _368  and  _369
REMARK  133  A    between atoms: _368  and  _371
REMARK  134  A    between atoms: _371  and  _372
REMARK                            x       y       z     vdW  Elec       q    Type
REMARK                         _______ _______ _______ _____ _____    ______ ____
ROOT
ATOM      1  CA  TRP A   1      20.298  45.965  -0.403  0.00  0.00    +0.149 C 
ENDROOT
BRANCH   1   2
ATOM      2  C   TRP A   1      19.559  47.330  -0.536  0.00  0.00    +0.239 C 
ATOM      3  N   GLN A   2      19.173  48.032   0.537  0.00  0.00    -0.298 N 
ATOM      4  H   GLN A   2      18.542  48.835   0.341  0.00  0.00    +0.150 HD
ATOM      5  O   TRP A   1      19.389  47.789  -1.664  0.00  0.00    -0.274 OA
BRANCH   3   6
ATOM      6  CA  GLN A   2      19.510  47.832   1.933  0.00  0.00    +0.137 C 
BRANCH   6   7
ATOM      7  C   GLN A   2      18.275  48.251   2.735  0.00  0.00    +0.227 C 
ATOM      8  O   GLN A   2      17.411  49.018   2.251  0.00  0.00    -0.286 OA
ENDBRANCH   6   7
BRANCH   6   9
ATOM      9  CB  GLN A   2      20.740  48.697   2.348  0.00  0.00    +0.037 C 
BRANCH   9  10
ATOM     10  CG  GLN A   2      20.448  50.227   2.448  0.00  0.00    +0.087 C 
BRANCH  10  11
ATOM     11  CD  GLN A   2      21.701  51.083   2.274  0.00  0.00    +0.219 C 
ATOM     12  NE2 GLN A   2      22.156  51.719   3.339  0.00  0.00    -0.329 N 
ATOM     13 HE21 GLN A   2      21.670  51.616   4.253  0.00  0.00    +0.145 HD
ATOM     14 HE22 GLN A   2      23.000  52.322   3.263  0.00  0.00    +0.145 HD
ATOM     15  OE1 GLN A   2      22.236  51.173   1.184  0.00  0.00    -0.275 OA
ENDBRANCH  10  11
ENDBRANCH   9  10
ENDBRANCH   6   9
ENDBRANCH   3   6
ENDBRANCH   1   2
BRANCH   1  16
ATOM     16  N   TRP A   1      19.371  44.989  -0.899  0.00  0.00    -0.238 NA
ATOM     17  H   TRP A   1      19.281  44.866  -1.928  0.00  0.00    +0.142 HD
ENDBRANCH   1  16
BRANCH   1  18
ATOM     18  CB  TRP A   1      21.626  45.967  -1.213  0.00  0.00    +0.054 C 
BRANCH  18  19
ATOM     19  CG  TRP A   1      22.541  46.911  -0.535  0.00  0.00    -0.002 A 
ATOM     20  CD2 TRP A   1      23.375  46.589   0.580  0.00  0.00    +0.013 A 
ATOM     21  CE3 TRP A   1      23.672  45.380   1.251  0.00  0.00    +0.001 A 
ATOM     22  CZ3 TRP A   1      24.585  45.408   2.329  0.00  0.00    +0.000 A 
ATOM     23  CH2 TRP A   1      25.170  46.611   2.742  0.00  0.00    +0.001 A 
ATOM     24  CZ2 TRP A   1      24.885  47.821   2.121  0.00  0.00    +0.017 A 
ATOM     25  CE2 TRP A   1      23.988  47.794   1.020  0.00  0.00    +0.056 A 
ATOM     26  NE1 TRP A   1      23.516  48.824   0.239  0.00  0.00    -0.352 N 
ATOM     27  HE1 TRP A   1      23.777  49.827   0.331  0.00  0.00    +0.166 HD
ATOM     28  CD1 TRP A   1      22.626  48.293  -0.700  0.00  0.00    +0.068 A 
ENDBRANCH  18  19
ENDBRANCH   1  18
TORSDOF 9
REMARK  Name = ../refined-set-2016/2vl4/2vl4_pocket.pdb
REMARK  134 active torsions:
REMARK  status: ('A' for Active; 'I' for Inactive)
REMARK    1  A    between atoms: _1  and  _3
REMARK    2  A    between atoms: _3  and  _4
REMARK    3  A    between atoms: _3  and  _6
REMARK    4  A    between atoms: _6  and  _7
REMARK    5  A    between atoms: _12  and  _14
REMARK    6  A    between atoms: _14  and  _15
REMARK    7  A    between atoms: _14  and  _17
REMARK    8  A    between atoms: _17  and  _18
REMARK    9  A    between atoms: _28  and  _30
REMARK   10  A    between atoms: _30  and  _31
REMARK   11  A    between atoms: _30  and  _33
REMARK   12  A    between atoms: _33  and  _34
REMARK   13  A    between atoms: _37  and  _39
REMARK   14  A    between atoms: _39  and  _40
REMARK   15  A    between atoms: _39  and  _42
REMARK   16  A    between atoms: _42  and  _43
REMARK   17  A    between atoms: _53  and  _55
REMARK   18  A    between atoms: _55  and  _56
REMARK   19  A    between atoms: _58  and  _60
REMARK   20  A    between atoms: _60  and  _61
REMARK   21  A    between atoms: _60  and  _63
REMARK   22  A    between atoms: _63  and  _64
REMARK   23  A    between atoms: _69  and  _71
REMARK   24  A    between atoms: _71  and  _72
REMARK   25  A    between atoms: _71  and  _74
REMARK   26  A    between atoms: _74  and  _75
REMARK   27  A    between atoms: _78  and  _80
REMARK   28  A    between atoms: _80  and  _81
REMARK   29  A    between atoms: _80  and  _83
REMARK   30  A    between atoms: _83  and  _84
REMARK   31  A    between atoms: _84  and  _85
REMARK   32  A    between atoms: _85  and  _86
REMARK   33  A    between atoms: _95  and  _97
REMARK   34  A    between atoms: _97  and  _98
REMARK   35  A    between atoms: _97  and  _100
REMARK   36  A    between atoms: _100  and  _101
REMARK   37  A    between atoms: _111  and  _113
REMARK   38  A    between atoms: _113  and  _114
REMARK   39  A    between atoms: _116  and  _118
REMARK   40  A    between atoms: _118  and  _119
REMARK   41  A    between atoms: _121  and  _123
REMARK   42  A    between atoms: _123  and  _124
REMARK   43  A    between atoms: _123  and  _126
REMARK   44  A    between atoms: _126  and  _127
REMARK   45  A    between atoms: _130  and  _132
REMARK   46  A    between atoms: _132  and  _133
REMARK   47  A    between atoms: _136  and  _138
REMARK   48  A    between atoms: _138  and  _139
REMARK   49  A    between atoms: _138  and  _141
REMARK   50  A    between atoms: _143  and  _145
REMARK   51  A    between atoms: _145  and  _146
REMARK   52  A    between atoms: _145  and  _148
REMARK   53  A    between atoms: _148  and  _149
REMARK   54  A    between atoms: _154  and  _156
REMARK   55  A    between atoms: _156  and  _157
REMARK   56  A    between atoms: _156  and  _159
REMARK   57  A    between atoms: _159  and  _160
REMARK   58  A    between atoms: _160  and  _161
REMARK   59  A    between atoms: _164  and  _166
REMARK   60  A    between atoms: _166  and  _167
REMARK   61  A    between atoms: _166  and  _169
REMARK   62  A    between atoms: _169  and  _170
REMARK   63  A    between atoms: _170  and  _171
REMARK   64  A    between atoms: _174  and  _176
REMARK   65  A    between atoms: _176  and  _177
REMARK   66  A    between atoms: _176  and  _179
REMARK   67  A    between atoms: _179  and  _180
REMARK   68  A    between atoms: _190  and  _192
REMARK   69  A    between atoms: _192  and  _193
REMARK   70  A    between atoms: _192  and  _195
REMARK   71  A    between atoms: _195  and  _196
REMARK   72  A    between atoms: _199  and  _200
REMARK   73  A    between atoms: _205  and  _207
REMARK   74  A    between atoms: _207  and  _208
REMARK   75  A    between atoms: _207  and  _210
REMARK   76  A    between atoms: _210  and  _211
REMARK   77  A    between atoms: _216  and  _218
REMARK   78  A    between atoms: _218  and  _219
REMARK   79  A    between atoms: _218  and  _221
REMARK   80  A    between atoms: _221  and  _222
REMARK   81  A    between atoms: _232  and  _234
REMARK   82  A    between atoms: _234  and  _235
REMARK   83  A    between atoms: _234  and  _237
REMARK   84  A    between atoms: _237  and  _238
REMARK   85  A    between atoms: _248  and  _250
REMARK   86  A    between atoms: _250  and  _251
REMARK   87  A    between atoms: _250  and  _253
REMARK   88  A    between atoms: _253  and  _254
REMARK   89  A    between atoms: _259  and  _260
REMARK   90  A    between atoms: _262  and  _264
REMARK   91  A    between atoms: _264  and  _265
REMARK   92  A    between atoms: _264  and  _267
REMARK   93  A    between atoms: _267  and  _268
REMARK   94  A    between atoms: _270  and  _272
REMARK   95  A    between atoms: _272  and  _273
REMARK   96  A    between atoms: _272  and  _275
REMARK   97  A    between atoms: _275  and  _276
REMARK   98  A    between atoms: _276  and  _277
REMARK   99  A    between atoms: _280  and  _282
REMARK  100  A    between atoms: _282  and  _283
REMARK  101  A    between atoms: _282  and  _285
REMARK  102  A    between atoms: _285  and  _286
REMARK  103  A    between atoms: _292  and  _294
REMARK  104  A    between atoms: _294  and  _295
REMARK  105  A    between atoms: _297  and  _299
REMARK  106  A    between atoms: _299  and  _300
REMARK  107  A    between atoms: _299  and  _302
REMARK  108  A    between atoms: _302  and  _303
REMARK  109  A    between atoms: _309  and  _311
REMARK  110  A    between atoms: _311  and  _312
REMARK  111  A    between atoms: _311  and  _314
REMARK  112  A    between atoms: _314  and  _315
REMARK  113  A    between atoms: _315  and  _316
REMARK  114  A    between atoms: _321  and  _323
REMARK  115  A    between atoms: _323  and  _324
REMARK  116  A    between atoms: _323  and  _326
REMARK  117  A    between atoms: _326  and  _327
REMARK  118  A    between atoms: _329  and  _331
REMARK  119  A    between atoms: _331  and  _332
REMARK  120  A    between atoms: _331  and  _334
REMARK  121  A    between atoms: _334  and  _335
REMARK  122  A    between atoms: _338  and  _340
REMARK  123  A    between atoms: _340  and  _341
REMARK  124  A    between atoms: _340  and  _343
REMARK  125  A    between atoms: _343  and  _344
REMARK  126  A    between atoms: _354  and  _356
REMARK  127  A    between atoms: _356  and  _357
REMARK  128  A    between atoms: _356  and  _359
REMARK  129  A    between atoms: _359  and  _360
REMARK  130  A    between atoms: _360  and  _361
REMARK  131  A    between atoms: _366  and  _368
REMARK  132  A    between atoms: _368  and  _369
REMARK  133  A    between atoms: _368  and  _371
REMARK  134  A    between atoms: _371  and  _372
REMARK                            x       y       z     vdW  Elec       q    Type
REMARK                         _______ _______ _______ _____ _____    ______ ____
ROOT
ATOM      1  CG  TRP A   1      21.540  51.151  -2.839  0.00  0.00    -0.002 A 
ATOM      2  CD2 TRP A   1      22.814  51.801  -2.656  0.00  0.00    +0.013 A 
ATOM      3  CE3 TRP A   1      23.467  52.385  -1.554  0.00  0.00    +0.001 A 
ATOM      4  CZ3 TRP A   1      24.769  52.944  -1.756  0.00  0.00    +0.000 A 
ATOM      5  CH2 TRP A   1      25.369  52.949  -3.031  0.00  0.00    +0.001 A 
ATOM      6  CZ2 TRP A   1      24.761  52.383  -4.114  0.00  0.00    +0.017 A 
ATOM      7  CE2 TRP A   1      23.470  51.815  -3.920  0.00  0.00    +0.056 A 
ATOM      8  NE1 TRP A   1      22.650  51.194  -4.811  0.00  0.00    -0.352 N 
ATOM      9  HE1 TRP A   1      22.856  51.045  -5.820  0.00  0.00    +0.166 HD
ATOM     10  CD1 TRP A   1      21.483  50.787  -4.149  0.00  0.00    +0.068 A 
ENDROOT
BRANCH   1  11
ATOM     11  CB  TRP A   1      20.457  50.879  -1.773  0.00  0.00    +0.053 C 
BRANCH  11  12
ATOM     12  CA  TRP A   1      19.561  52.084  -1.497  0.00  0.00    +0.137 C 
BRANCH  12  13
ATOM     13  N   TRP A   1      20.400  53.216  -1.161  0.00  0.00    -0.239 NA
ATOM     14  H   TRP A   1      21.382  53.030  -0.872  0.00  0.00    +0.142 HD
ENDBRANCH  12  13
BRANCH  12  15
ATOM     15  C   TRP A   1      18.505  51.713  -0.446  0.00  0.00    +0.224 C 
ATOM     16  O   TRP A   1      17.824  50.741  -0.612  0.00  0.00    -0.287 OA
ENDBRANCH  12  15
ENDBRANCH  11  12
ENDBRANCH   1  11
TORSDOF 4
REMARK  Name = ../refined-set-2016/2vl4/2vl4_pocket.pdb
REMARK  134 active torsions:
REMARK  status: ('A' for Active; 'I' for Inactive)
REMARK    1  A    between atoms: _1  and  _3
REMARK    2  A    between atoms: _3  and  _4
REMARK    3  A    between atoms: _3  and  _6
REMARK    4  A    between atoms: _6  and  _7
REMARK    5  A    between atoms: _12  and  _14
REMARK    6  A    between atoms: _14  and  _15
REMARK    7  A    between atoms: _14  and  _17
REMARK    8  A    between atoms: _17  and  _18
REMARK    9  A    between atoms: _28  and  _30
REMARK   10  A    between atoms: _30  and  _31
REMARK   11  A    between atoms: _30  and  _33
REMARK   12  A    between atoms: _33  and  _34
REMARK   13  A    between atoms: _37  and  _39
REMARK   14  A    between atoms: _39  and  _40
REMARK   15  A    between atoms: _39  and  _42
REMARK   16  A    between atoms: _42  and  _43
REMARK   17  A    between atoms: _53  and  _55
REMARK   18  A    between atoms: _55  and  _56
REMARK   19  A    between atoms: _58  and  _60
REMARK   20  A    between atoms: _60  and  _61
REMARK   21  A    between atoms: _60  and  _63
REMARK   22  A    between atoms: _63  and  _64
REMARK   23  A    between atoms: _69  and  _71
REMARK   24  A    between atoms: _71  and  _72
REMARK   25  A    between atoms: _71  and  _74
REMARK   26  A    between atoms: _74  and  _75
REMARK   27  A    between atoms: _78  and  _80
REMARK   28  A    between atoms: _80  and  _81
REMARK   29  A    between atoms: _80  and  _83
REMARK   30  A    between atoms: _83  and  _84
REMARK   31  A    between atoms: _84  and  _85
REMARK   32  A    between atoms: _85  and  _86
REMARK   33  A    between atoms: _95  and  _97
REMARK   34  A    between atoms: _97  and  _98
REMARK   35  A    between atoms: _97  and  _100
REMARK   36  A    between atoms: _100  and  _101
REMARK   37  A    between atoms: _111  and  _113
REMARK   38  A    between atoms: _113  and  _114
REMARK   39  A    between atoms: _116  and  _118
REMARK   40  A    between atoms: _118  and  _119
REMARK   41  A    between atoms: _121  and  _123
REMARK   42  A    between atoms: _123  and  _124
REMARK   43  A    between atoms: _123  and  _126
REMARK   44  A    between atoms: _126  and  _127
REMARK   45  A    between atoms: _130  and  _132
REMARK   46  A    between atoms: _132  and  _133
REMARK   47  A    between atoms: _136  and  _138
REMARK   48  A    between atoms: _138  and  _139
REMARK   49  A    between atoms: _138  and  _141
REMARK   50  A    between atoms: _143  and  _145
REMARK   51  A    between atoms: _145  and  _146
REMARK   52  A    between atoms: _145  and  _148
REMARK   53  A    between atoms: _148  and  _149
REMARK   54  A    between atoms: _154  and  _156
REMARK   55  A    between atoms: _156  and  _157
REMARK   56  A    between atoms: _156  and  _159
REMARK   57  A    between atoms: _159  and  _160
REMARK   58  A    between atoms: _160  and  _161
REMARK   59  A    between atoms: _164  and  _166
REMARK   60  A    between atoms: _166  and  _167
REMARK   61  A    between atoms: _166  and  _169
REMARK   62  A    between atoms: _169  and  _170
REMARK   63  A    between atoms: _170  and  _171
REMARK   64  A    between atoms: _174  and  _176
REMARK   65  A    between atoms: _176  and  _177
REMARK   66  A    between atoms: _176  and  _179
REMARK   67  A    between atoms: _179  and  _180
REMARK   68  A    between atoms: _190  and  _192
REMARK   69  A    between atoms: _192  and  _193
REMARK   70  A    between atoms: _192  and  _195
REMARK   71  A    between atoms: _195  and  _196
REMARK   72  A    between atoms: _199  and  _200
REMARK   73  A    between atoms: _205  and  _207
REMARK   74  A    between atoms: _207  and  _208
REMARK   75  A    between atoms: _207  and  _210
REMARK   76  A    between atoms: _210  and  _211
REMARK   77  A    between atoms: _216  and  _218
REMARK   78  A    between atoms: _218  and  _219
REMARK   79  A    between atoms: _218  and  _221
REMARK   80  A    between atoms: _221  and  _222
REMARK   81  A    between atoms: _232  and  _234
REMARK   82  A    between atoms: _234  and  _235
REMARK   83  A    between atoms: _234  and  _237
REMARK   84  A    between atoms: _237  and  _238
REMARK   85  A    between atoms: _248  and  _250
REMARK   86  A    between atoms: _250  and  _251
REMARK   87  A    between atoms: _250  and  _253
REMARK   88  A    between atoms: _253  and  _254
REMARK   89  A    between atoms: _259  and  _260
REMARK   90  A    between atoms: _262  and  _264
REMARK   91  A    between atoms: _264  and  _265
REMARK   92  A    between atoms: _264  and  _267
REMARK   93  A    between atoms: _267  and  _268
REMARK   94  A    between atoms: _270  and  _272
REMARK   95  A    between atoms: _272  and  _273
REMARK   96  A    between atoms: _272  and  _275
REMARK   97  A    between atoms: _275  and  _276
REMARK   98  A    between atoms: _276  and  _277
REMARK   99  A    between atoms: _280  and  _282
REMARK  100  A    between atoms: _282  and  _283
REMARK  101  A    between atoms: _282  and  _285
REMARK  102  A    between atoms: _285  and  _286
REMARK  103  A    between atoms: _292  and  _294
REMARK  104  A    between atoms: _294  and  _295
REMARK  105  A    between atoms: _297  and  _299
REMARK  106  A    between atoms: _299  and  _300
REMARK  107  A    between atoms: _299  and  _302
REMARK  108  A    between atoms: _302  and  _303
REMARK  109  A    between atoms: _309  and  _311
REMARK  110  A    between atoms: _311  and  _312
REMARK  111  A    between atoms: _311  and  _314
REMARK  112  A    between atoms: _314  and  _315
REMARK  113  A    between atoms: _315  and  _316
REMARK  114  A    between atoms: _321  and  _323
REMARK  115  A    between atoms: _323  and  _324
REMARK  116  A    between atoms: _323  and  _326
REMARK  117  A    between atoms: _326  and  _327
REMARK  118  A    between atoms: _329  and  _331
REMARK  119  A    between atoms: _331  and  _332
REMARK  120  A    between atoms: _331  and  _334
REMARK  121  A    between atoms: _334  and  _335
REMARK  122  A    between atoms: _338  and  _340
REMARK  123  A    between atoms: _340  and  _341
REMARK  124  A    between atoms: _340  and  _343
REMARK  125  A    between atoms: _343  and  _344
REMARK  126  A    between atoms: _354  and  _356
REMARK  127  A    between atoms: _356  and  _357
REMARK  128  A    between atoms: _356  and  _359
REMARK  129  A    between atoms: _359  and  _360
REMARK  130  A    between atoms: _360  and  _361
REMARK  131  A    between atoms: _366  and  _368
REMARK  132  A    between atoms: _368  and  _369
REMARK  133  A    between atoms: _368  and  _371
REMARK  134  A    between atoms: _371  and  _372
REMARK                            x       y       z     vdW  Elec       q    Type
REMARK                         _______ _______ _______ _____ _____    ______ ____
ROOT
ATOM      1  O   HOH     1      33.830  47.999  -6.153  0.00  0.00    +0.000 OA
ENDROOT
TORSDOF 0
REMARK  Name = ../refined-set-2016/2vl4/2vl4_pocket.pdb
REMARK  134 active torsions:
REMARK  status: ('A' for Active; 'I' for Inactive)
REMARK    1  A    between atoms: _1  and  _3
REMARK    2  A    between atoms: _3  and  _4
REMARK    3  A    between atoms: _3  and  _6
REMARK    4  A    between atoms: _6  and  _7
REMARK    5  A    between atoms: _12  and  _14
REMARK    6  A    between atoms: _14  and  _15
REMARK    7  A    between atoms: _14  and  _17
REMARK    8  A    between atoms: _17  and  _18
REMARK    9  A    between atoms: _28  and  _30
REMARK   10  A    between atoms: _30  and  _31
REMARK   11  A    between atoms: _30  and  _33
REMARK   12  A    between atoms: _33  and  _34
REMARK   13  A    between atoms: _37  and  _39
REMARK   14  A    between atoms: _39  and  _40
REMARK   15  A    between atoms: _39  and  _42
REMARK   16  A    between atoms: _42  and  _43
REMARK   17  A    between atoms: _53  and  _55
REMARK   18  A    between atoms: _55  and  _56
REMARK   19  A    between atoms: _58  and  _60
REMARK   20  A    between atoms: _60  and  _61
REMARK   21  A    between atoms: _60  and  _63
REMARK   22  A    between atoms: _63  and  _64
REMARK   23  A    between atoms: _69  and  _71
REMARK   24  A    between atoms: _71  and  _72
REMARK   25  A    between atoms: _71  and  _74
REMARK   26  A    between atoms: _74  and  _75
REMARK   27  A    between atoms: _78  and  _80
REMARK   28  A    between atoms: _80  and  _81
REMARK   29  A    between atoms: _80  and  _83
REMARK   30  A    between atoms: _83  and  _84
REMARK   31  A    between atoms: _84  and  _85
REMARK   32  A    between atoms: _85  and  _86
REMARK   33  A    between atoms: _95  and  _97
REMARK   34  A    between atoms: _97  and  _98
REMARK   35  A    between atoms: _97  and  _100
REMARK   36  A    between atoms: _100  and  _101
REMARK   37  A    between atoms: _111  and  _113
REMARK   38  A    between atoms: _113  and  _114
REMARK   39  A    between atoms: _116  and  _118
REMARK   40  A    between atoms: _118  and  _119
REMARK   41  A    between atoms: _121  and  _123
REMARK   42  A    between atoms: _123  and  _124
REMARK   43  A    between atoms: _123  and  _126
REMARK   44  A    between atoms: _126  and  _127
REMARK   45  A    between atoms: _130  and  _132
REMARK   46  A    between atoms: _132  and  _133
REMARK   47  A    between atoms: _136  and  _138
REMARK   48  A    between atoms: _138  and  _139
REMARK   49  A    between atoms: _138  and  _141
REMARK   50  A    between atoms: _143  and  _145
REMARK   51  A    between atoms: _145  and  _146
REMARK   52  A    between atoms: _145  and  _148
REMARK   53  A    between atoms: _148  and  _149
REMARK   54  A    between atoms: _154  and  _156
REMARK   55  A    between atoms: _156  and  _157
REMARK   56  A    between atoms: _156  and  _159
REMARK   57  A    between atoms: _159  and  _160
REMARK   58  A    between atoms: _160  and  _161
REMARK   59  A    between atoms: _164  and  _166
REMARK   60  A    between atoms: _166  and  _167
REMARK   61  A    between atoms: _166  and  _169
REMARK   62  A    between atoms: _169  and  _170
REMARK   63  A    between atoms: _170  and  _171
REMARK   64  A    between atoms: _174  and  _176
REMARK   65  A    between atoms: _176  and  _177
REMARK   66  A    between atoms: _176  and  _179
REMARK   67  A    between atoms: _179  and  _180
REMARK   68  A    between atoms: _190  and  _192
REMARK   69  A    between atoms: _192  and  _193
REMARK   70  A    between atoms: _192  and  _195
REMARK   71  A    between atoms: _195  and  _196
REMARK   72  A    between atoms: _199  and  _200
REMARK   73  A    between atoms: _205  and  _207
REMARK   74  A    between atoms: _207  and  _208
REMARK   75  A    between atoms: _207  and  _210
REMARK   76  A    between atoms: _210  and  _211
REMARK   77  A    between atoms: _216  and  _218
REMARK   78  A    between atoms: _218  and  _219
REMARK   79  A    between atoms: _218  and  _221
REMARK   80  A    between atoms: _221  and  _222
REMARK   81  A    between atoms: _232  and  _234
REMARK   82  A    between atoms: _234  and  _235
REMARK   83  A    between atoms: _234  and  _237
REMARK   84  A    between atoms: _237  and  _238
REMARK   85  A    between atoms: _248  and  _250
REMARK   86  A    between atoms: _250  and  _251
REMARK   87  A    between atoms: _250  and  _253
REMARK   88  A    between atoms: _253  and  _254
REMARK   89  A    between atoms: _259  and  _260
REMARK   90  A    between atoms: _262  and  _264
REMARK   91  A    between atoms: _264  and  _265
REMARK   92  A    between atoms: _264  and  _267
REMARK   93  A    between atoms: _267  and  _268
REMARK   94  A    between atoms: _270  and  _272
REMARK   95  A    between atoms: _272  and  _273
REMARK   96  A    between atoms: _272  and  _275
REMARK   97  A    between atoms: _275  and  _276
REMARK   98  A    between atoms: _276  and  _277
REMARK   99  A    between atoms: _280  and  _282
REMARK  100  A    between atoms: _282  and  _283
REMARK  101  A    between atoms: _282  and  _285
REMARK  102  A    between atoms: _285  and  _286
REMARK  103  A    between atoms: _292  and  _294
REMARK  104  A    between atoms: _294  and  _295
REMARK  105  A    between atoms: _297  and  _299
REMARK  106  A    between atoms: _299  and  _300
REMARK  107  A    between atoms: _299  and  _302
REMARK  108  A    between atoms: _302  and  _303
REMARK  109  A    between atoms: _309  and  _311
REMARK  110  A    between atoms: _311  and  _312
REMARK  111  A    between atoms: _311  and  _314
REMARK  112  A    between atoms: _314  and  _315
REMARK  113  A    between atoms: _315  and  _316
REMARK  114  A    between atoms: _321  and  _323
REMARK  115  A    between atoms: _323  and  _324
REMARK  116  A    between atoms: _323  and  _326
REMARK  117  A    between atoms: _326  and  _327
REMARK  118  A    between atoms: _329  and  _331
REMARK  119  A    between atoms: _331  and  _332
REMARK  120  A    between atoms: _331  and  _334
REMARK  121  A    between atoms: _334  and  _335
REMARK  122  A    between atoms: _338  and  _340
REMARK  123  A    between atoms: _340  and  _341
REMARK  124  A    between atoms: _340  and  _343
REMARK  125  A    between atoms: _343  and  _344
REMARK  126  A    between atoms: _354  and  _356
REMARK  127  A    between atoms: _356  and  _357
REMARK  128  A    between atoms: _356  and  _359
REMARK  129  A    between atoms: _359  and  _360
REMARK  130  A    between atoms: _360  and  _361
REMARK  131  A    between atoms: _366  and  _368
REMARK  132  A    between atoms: _368  and  _369
REMARK  133  A    between atoms: _368  and  _371
REMARK  134  A    between atoms: _371  and  _372
REMARK                            x       y       z     vdW  Elec       q    Type
REMARK                         _______ _______ _______ _____ _____    ______ ____
ROOT
ATOM      1  O   HOH     1      31.328  49.603  -6.722  0.00  0.00    +0.000 OA
ENDROOT
TORSDOF 0
REMARK  Name = ../refined-set-2016/2vl4/2vl4_pocket.pdb
REMARK  134 active torsions:
REMARK  status: ('A' for Active; 'I' for Inactive)
REMARK    1  A    between atoms: _1  and  _3
REMARK    2  A    between atoms: _3  and  _4
REMARK    3  A    between atoms: _3  and  _6
REMARK    4  A    between atoms: _6  and  _7
REMARK    5  A    between atoms: _12  and  _14
REMARK    6  A    between atoms: _14  and  _15
REMARK    7  A    between atoms: _14  and  _17
REMARK    8  A    between atoms: _17  and  _18
REMARK    9  A    between atoms: _28  and  _30
REMARK   10  A    between atoms: _30  and  _31
REMARK   11  A    between atoms: _30  and  _33
REMARK   12  A    between atoms: _33  and  _34
REMARK   13  A    between atoms: _37  and  _39
REMARK   14  A    between atoms: _39  and  _40
REMARK   15  A    between atoms: _39  and  _42
REMARK   16  A    between atoms: _42  and  _43
REMARK   17  A    between atoms: _53  and  _55
REMARK   18  A    between atoms: _55  and  _56
REMARK   19  A    between atoms: _58  and  _60
REMARK   20  A    between atoms: _60  and  _61
REMARK   21  A    between atoms: _60  and  _63
REMARK   22  A    between atoms: _63  and  _64
REMARK   23  A    between atoms: _69  and  _71
REMARK   24  A    between atoms: _71  and  _72
REMARK   25  A    between atoms: _71  and  _74
REMARK   26  A    between atoms: _74  and  _75
REMARK   27  A    between atoms: _78  and  _80
REMARK   28  A    between atoms: _80  and  _81
REMARK   29  A    between atoms: _80  and  _83
REMARK   30  A    between atoms: _83  and  _84
REMARK   31  A    between atoms: _84  and  _85
REMARK   32  A    between atoms: _85  and  _86
REMARK   33  A    between atoms: _95  and  _97
REMARK   34  A    between atoms: _97  and  _98
REMARK   35  A    between atoms: _97  and  _100
REMARK   36  A    between atoms: _100  and  _101
REMARK   37  A    between atoms: _111  and  _113
REMARK   38  A    between atoms: _113  and  _114
REMARK   39  A    between atoms: _116  and  _118
REMARK   40  A    between atoms: _118  and  _119
REMARK   41  A    between atoms: _121  and  _123
REMARK   42  A    between atoms: _123  and  _124
REMARK   43  A    between atoms: _123  and  _126
REMARK   44  A    between atoms: _126  and  _127
REMARK   45  A    between atoms: _130  and  _132
REMARK   46  A    between atoms: _132  and  _133
REMARK   47  A    between atoms: _136  and  _138
REMARK   48  A    between atoms: _138  and  _139
REMARK   49  A    between atoms: _138  and  _141
REMARK   50  A    between atoms: _143  and  _145
REMARK   51  A    between atoms: _145  and  _146
REMARK   52  A    between atoms: _145  and  _148
REMARK   53  A    between atoms: _148  and  _149
REMARK   54  A    between atoms: _154  and  _156
REMARK   55  A    between atoms: _156  and  _157
REMARK   56  A    between atoms: _156  and  _159
REMARK   57  A    between atoms: _159  and  _160
REMARK   58  A    between atoms: _160  and  _161
REMARK   59  A    between atoms: _164  and  _166
REMARK   60  A    between atoms: _166  and  _167
REMARK   61  A    between atoms: _166  and  _169
REMARK   62  A    between atoms: _169  and  _170
REMARK   63  A    between atoms: _170  and  _171
REMARK   64  A    between atoms: _174  and  _176
REMARK   65  A    between atoms: _176  and  _177
REMARK   66  A    between atoms: _176  and  _179
REMARK   67  A    between atoms: _179  and  _180
REMARK   68  A    between atoms: _190  and  _192
REMARK   69  A    between atoms: _192  and  _193
REMARK   70  A    between atoms: _192  and  _195
REMARK   71  A    between atoms: _195  and  _196
REMARK   72  A    between atoms: _199  and  _200
REMARK   73  A    between atoms: _205  and  _207
REMARK   74  A    between atoms: _207  and  _208
REMARK   75  A    between atoms: _207  and  _210
REMARK   76  A    between atoms: _210  and  _211
REMARK   77  A    between atoms: _216  and  _218
REMARK   78  A    between atoms: _218  and  _219
REMARK   79  A    between atoms: _218  and  _221
REMARK   80  A    between atoms: _221  and  _222
REMARK   81  A    between atoms: _232  and  _234
REMARK   82  A    between atoms: _234  and  _235
REMARK   83  A    between atoms: _234  and  _237
REMARK   84  A    between atoms: _237  and  _238
REMARK   85  A    between atoms: _248  and  _250
REMARK   86  A    between atoms: _250  and  _251
REMARK   87  A    between atoms: _250  and  _253
REMARK   88  A    between atoms: _253  and  _254
REMARK   89  A    between atoms: _259  and  _260
REMARK   90  A    between atoms: _262  and  _264
REMARK   91  A    between atoms: _264  and  _265
REMARK   92  A    between atoms: _264  and  _267
REMARK   93  A    between atoms: _267  and  _268
REMARK   94  A    between atoms: _270  and  _272
REMARK   95  A    between atoms: _272  and  _273
REMARK   96  A    between atoms: _272  and  _275
REMARK   97  A    between atoms: _275  and  _276
REMARK   98  A    between atoms: _276  and  _277
REMARK   99  A    between atoms: _280  and  _282
REMARK  100  A    between atoms: _282  and  _283
REMARK  101  A    between atoms: _282  and  _285
REMARK  102  A    between atoms: _285  and  _286
REMARK  103  A    between atoms: _292  and  _294
REMARK  104  A    between atoms: _294  and  _295
REMARK  105  A    between atoms: _297  and  _299
REMARK  106  A    between atoms: _299  and  _300
REMARK  107  A    between atoms: _299  and  _302
REMARK  108  A    between atoms: _302  and  _303
REMARK  109  A    between atoms: _309  and  _311
REMARK  110  A    between atoms: _311  and  _312
REMARK  111  A    between atoms: _311  and  _314
REMARK  112  A    between atoms: _314  and  _315
REMARK  113  A    between atoms: _315  and  _316
REMARK  114  A    between atoms: _321  and  _323
REMARK  115  A    between atoms: _323  and  _324
REMARK  116  A    between atoms: _323  and  _326
REMARK  117  A    between atoms: _326  and  _327
REMARK  118  A    between atoms: _329  and  _331
REMARK  119  A    between atoms: _331  and  _332
REMARK  120  A    between atoms: _331  and  _334
REMARK  121  A    between atoms: _334  and  _335
REMARK  122  A    between atoms: _338  and  _340
REMARK  123  A    between atoms: _340  and  _341
REMARK  124  A    between atoms: _340  and  _343
REMARK  125  A    between atoms: _343  and  _344
REMARK  126  A    between atoms: _354  and  _356
REMARK  127  A    between atoms: _356  and  _357
REMARK  128  A    between atoms: _356  and  _359
REMARK  129  A    between atoms: _359  and  _360
REMARK  130  A    between atoms: _360  and  _361
REMARK  131  A    between atoms: _366  and  _368
REMARK  132  A    between atoms: _368  and  _369
REMARK  133  A    between atoms: _368  and  _371
REMARK  134  A    between atoms: _371  and  _372
REMARK                            x       y       z     vdW  Elec       q    Type
REMARK                         _______ _______ _______ _____ _____    ______ ____
ROOT
ATOM      1  O   HOH     1      36.160  49.274   0.516  0.00  0.00    +0.000 OA
ENDROOT
TORSDOF 0
REMARK  Name = ../refined-set-2016/2vl4/2vl4_pocket.pdb
REMARK  134 active torsions:
REMARK  status: ('A' for Active; 'I' for Inactive)
REMARK    1  A    between atoms: _1  and  _3
REMARK    2  A    between atoms: _3  and  _4
REMARK    3  A    between atoms: _3  and  _6
REMARK    4  A    between atoms: _6  and  _7
REMARK    5  A    between atoms: _12  and  _14
REMARK    6  A    between atoms: _14  and  _15
REMARK    7  A    between atoms: _14  and  _17
REMARK    8  A    between atoms: _17  and  _18
REMARK    9  A    between atoms: _28  and  _30
REMARK   10  A    between atoms: _30  and  _31
REMARK   11  A    between atoms: _30  and  _33
REMARK   12  A    between atoms: _33  and  _34
REMARK   13  A    between atoms: _37  and  _39
REMARK   14  A    between atoms: _39  and  _40
REMARK   15  A    between atoms: _39  and  _42
REMARK   16  A    between atoms: _42  and  _43
REMARK   17  A    between atoms: _53  and  _55
REMARK   18  A    between atoms: _55  and  _56
REMARK   19  A    between atoms: _58  and  _60
REMARK   20  A    between atoms: _60  and  _61
REMARK   21  A    between atoms: _60  and  _63
REMARK   22  A    between atoms: _63  and  _64
REMARK   23  A    between atoms: _69  and  _71
REMARK   24  A    between atoms: _71  and  _72
REMARK   25  A    between atoms: _71  and  _74
REMARK   26  A    between atoms: _74  and  _75
REMARK   27  A    between atoms: _78  and  _80
REMARK   28  A    between atoms: _80  and  _81
REMARK   29  A    between atoms: _80  and  _83
REMARK   30  A    between atoms: _83  and  _84
REMARK   31  A    between atoms: _84  and  _85
REMARK   32  A    between atoms: _85  and  _86
REMARK   33  A    between atoms: _95  and  _97
REMARK   34  A    between atoms: _97  and  _98
REMARK   35  A    between atoms: _97  and  _100
REMARK   36  A    between atoms: _100  and  _101
REMARK   37  A    between atoms: _111  and  _113
REMARK   38  A    between atoms: _113  and  _114
REMARK   39  A    between atoms: _116  and  _118
REMARK   40  A    between atoms: _118  and  _119
REMARK   41  A    between atoms: _121  and  _123
REMARK   42  A    between atoms: _123  and  _124
REMARK   43  A    between atoms: _123  and  _126
REMARK   44  A    between atoms: _126  and  _127
REMARK   45  A    between atoms: _130  and  _132
REMARK   46  A    between atoms: _132  and  _133
REMARK   47  A    between atoms: _136  and  _138
REMARK   48  A    between atoms: _138  and  _139
REMARK   49  A    between atoms: _138  and  _141
REMARK   50  A    between atoms: _143  and  _145
REMARK   51  A    between atoms: _145  and  _146
REMARK   52  A    between atoms: _145  and  _148
REMARK   53  A    between atoms: _148  and  _149
REMARK   54  A    between atoms: _154  and  _156
REMARK   55  A    between atoms: _156  and  _157
REMARK   56  A    between atoms: _156  and  _159
REMARK   57  A    between atoms: _159  and  _160
REMARK   58  A    between atoms: _160  and  _161
REMARK   59  A    between atoms: _164  and  _166
REMARK   60  A    between atoms: _166  and  _167
REMARK   61  A    between atoms: _166  and  _169
REMARK   62  A    between atoms: _169  and  _170
REMARK   63  A    between atoms: _170  and  _171
REMARK   64  A    between atoms: _174  and  _176
REMARK   65  A    between atoms: _176  and  _177
REMARK   66  A    between atoms: _176  and  _179
REMARK   67  A    between atoms: _179  and  _180
REMARK   68  A    between atoms: _190  and  _192
REMARK   69  A    between atoms: _192  and  _193
REMARK   70  A    between atoms: _192  and  _195
REMARK   71  A    between atoms: _195  and  _196
REMARK   72  A    between atoms: _199  and  _200
REMARK   73  A    between atoms: _205  and  _207
REMARK   74  A    between atoms: _207  and  _208
REMARK   75  A    between atoms: _207  and  _210
REMARK   76  A    between atoms: _210  and  _211
REMARK   77  A    between atoms: _216  and  _218
REMARK   78  A    between atoms: _218  and  _219
REMARK   79  A    between atoms: _218  and  _221
REMARK   80  A    between atoms: _221  and  _222
REMARK   81  A    between atoms: _232  and  _234
REMARK   82  A    between atoms: _234  and  _235
REMARK   83  A    between atoms: _234  and  _237
REMARK   84  A    between atoms: _237  and  _238
REMARK   85  A    between atoms: _248  and  _250
REMARK   86  A    between atoms: _250  and  _251
REMARK   87  A    between atoms: _250  and  _253
REMARK   88  A    between atoms: _253  and  _254
REMARK   89  A    between atoms: _259  and  _260
REMARK   90  A    between atoms: _262  and  _264
REMARK   91  A    between atoms: _264  and  _265
REMARK   92  A    between atoms: _264  and  _267
REMARK   93  A    between atoms: _267  and  _268
REMARK   94  A    between atoms: _270  and  _272
REMARK   95  A    between atoms: _272  and  _273
REMARK   96  A    between atoms: _272  and  _275
REMARK   97  A    between atoms: _275  and  _276
REMARK   98  A    between atoms: _276  and  _277
REMARK   99  A    between atoms: _280  and  _282
REMARK  100  A    between atoms: _282  and  _283
REMARK  101  A    between atoms: _282  and  _285
REMARK  102  A    between atoms: _285  and  _286
REMARK  103  A    between atoms: _292  and  _294
REMARK  104  A    between atoms: _294  and  _295
REMARK  105  A    between atoms: _297  and  _299
REMARK  106  A    between atoms: _299  and  _300
REMARK  107  A    between atoms: _299  and  _302
REMARK  108  A    between atoms: _302  and  _303
REMARK  109  A    between atoms: _309  and  _311
REMARK  110  A    between atoms: _311  and  _312
REMARK  111  A    between atoms: _311  and  _314
REMARK  112  A    between atoms: _314  and  _315
REMARK  113  A    between atoms: _315  and  _316
REMARK  114  A    between atoms: _321  and  _323
REMARK  115  A    between atoms: _323  and  _324
REMARK  116  A    between atoms: _323  and  _326
REMARK  117  A    between atoms: _326  and  _327
REMARK  118  A    between atoms: _329  and  _331
REMARK  119  A    between atoms: _331  and  _332
REMARK  120  A    between atoms: _331  and  _334
REMARK  121  A    between atoms: _334  and  _335
REMARK  122  A    between atoms: _338  and  _340
REMARK  123  A    between atoms: _340  and  _341
REMARK  124  A    between atoms: _340  and  _343
REMARK  125  A    between atoms: _343  and  _344
REMARK  126  A    between atoms: _354  and  _356
REMARK  127  A    between atoms: _356  and  _357
REMARK  128  A    between atoms: _356  and  _359
REMARK  129  A    between atoms: _359  and  _360
REMARK  130  A    between atoms: _360  and  _361
REMARK  131  A    between atoms: _366  and  _368
REMARK  132  A    between atoms: _368  and  _369
REMARK  133  A    between atoms: _368  and  _371
REMARK  134  A    between atoms: _371  and  _372
REMARK                            x       y       z     vdW  Elec       q    Type
REMARK                         _______ _______ _______ _____ _____    ______ ____
ROOT
ATOM      1  O   HOH     1      34.364  49.898  -4.262  0.00  0.00    +0.000 OA
ENDROOT
TORSDOF 0
REMARK  Name = ../refined-set-2016/2vl4/2vl4_pocket.pdb
REMARK  134 active torsions:
REMARK  status: ('A' for Active; 'I' for Inactive)
REMARK    1  A    between atoms: _1  and  _3
REMARK    2  A    between atoms: _3  and  _4
REMARK    3  A    between atoms: _3  and  _6
REMARK    4  A    between atoms: _6  and  _7
REMARK    5  A    between atoms: _12  and  _14
REMARK    6  A    between atoms: _14  and  _15
REMARK    7  A    between atoms: _14  and  _17
REMARK    8  A    between atoms: _17  and  _18
REMARK    9  A    between atoms: _28  and  _30
REMARK   10  A    between atoms: _30  and  _31
REMARK   11  A    between atoms: _30  and  _33
REMARK   12  A    between atoms: _33  and  _34
REMARK   13  A    between atoms: _37  and  _39
REMARK   14  A    between atoms: _39  and  _40
REMARK   15  A    between atoms: _39  and  _42
REMARK   16  A    between atoms: _42  and  _43
REMARK   17  A    between atoms: _53  and  _55
REMARK   18  A    between atoms: _55  and  _56
REMARK   19  A    between atoms: _58  and  _60
REMARK   20  A    between atoms: _60  and  _61
REMARK   21  A    between atoms: _60  and  _63
REMARK   22  A    between atoms: _63  and  _64
REMARK   23  A    between atoms: _69  and  _71
REMARK   24  A    between atoms: _71  and  _72
REMARK   25  A    between atoms: _71  and  _74
REMARK   26  A    between atoms: _74  and  _75
REMARK   27  A    between atoms: _78  and  _80
REMARK   28  A    between atoms: _80  and  _81
REMARK   29  A    between atoms: _80  and  _83
REMARK   30  A    between atoms: _83  and  _84
REMARK   31  A    between atoms: _84  and  _85
REMARK   32  A    between atoms: _85  and  _86
REMARK   33  A    between atoms: _95  and  _97
REMARK   34  A    between atoms: _97  and  _98
REMARK   35  A    between atoms: _97  and  _100
REMARK   36  A    between atoms: _100  and  _101
REMARK   37  A    between atoms: _111  and  _113
REMARK   38  A    between atoms: _113  and  _114
REMARK   39  A    between atoms: _116  and  _118
REMARK   40  A    between atoms: _118  and  _119
REMARK   41  A    between atoms: _121  and  _123
REMARK   42  A    between atoms: _123  and  _124
REMARK   43  A    between atoms: _123  and  _126
REMARK   44  A    between atoms: _126  and  _127
REMARK   45  A    between atoms: _130  and  _132
REMARK   46  A    between atoms: _132  and  _133
REMARK   47  A    between atoms: _136  and  _138
REMARK   48  A    between atoms: _138  and  _139
REMARK   49  A    between atoms: _138  and  _141
REMARK   50  A    between atoms: _143  and  _145
REMARK   51  A    between atoms: _145  and  _146
REMARK   52  A    between atoms: _145  and  _148
REMARK   53  A    between atoms: _148  and  _149
REMARK   54  A    between atoms: _154  and  _156
REMARK   55  A    between atoms: _156  and  _157
REMARK   56  A    between atoms: _156  and  _159
REMARK   57  A    between atoms: _159  and  _160
REMARK   58  A    between atoms: _160  and  _161
REMARK   59  A    between atoms: _164  and  _166
REMARK   60  A    between atoms: _166  and  _167
REMARK   61  A    between atoms: _166  and  _169
REMARK   62  A    between atoms: _169  and  _170
REMARK   63  A    between atoms: _170  and  _171
REMARK   64  A    between atoms: _174  and  _176
REMARK   65  A    between atoms: _176  and  _177
REMARK   66  A    between atoms: _176  and  _179
REMARK   67  A    between atoms: _179  and  _180
REMARK   68  A    between atoms: _190  and  _192
REMARK   69  A    between atoms: _192  and  _193
REMARK   70  A    between atoms: _192  and  _195
REMARK   71  A    between atoms: _195  and  _196
REMARK   72  A    between atoms: _199  and  _200
REMARK   73  A    between atoms: _205  and  _207
REMARK   74  A    between atoms: _207  and  _208
REMARK   75  A    between atoms: _207  and  _210
REMARK   76  A    between atoms: _210  and  _211
REMARK   77  A    between atoms: _216  and  _218
REMARK   78  A    between atoms: _218  and  _219
REMARK   79  A    between atoms: _218  and  _221
REMARK   80  A    between atoms: _221  and  _222
REMARK   81  A    between atoms: _232  and  _234
REMARK   82  A    between atoms: _234  and  _235
REMARK   83  A    between atoms: _234  and  _237
REMARK   84  A    between atoms: _237  and  _238
REMARK   85  A    between atoms: _248  and  _250
REMARK   86  A    between atoms: _250  and  _251
REMARK   87  A    between atoms: _250  and  _253
REMARK   88  A    between atoms: _253  and  _254
REMARK   89  A    between atoms: _259  and  _260
REMARK   90  A    between atoms: _262  and  _264
REMARK   91  A    between atoms: _264  and  _265
REMARK   92  A    between atoms: _264  and  _267
REMARK   93  A    between atoms: _267  and  _268
REMARK   94  A    between atoms: _270  and  _272
REMARK   95  A    between atoms: _272  and  _273
REMARK   96  A    between atoms: _272  and  _275
REMARK   97  A    between atoms: _275  and  _276
REMARK   98  A    between atoms: _276  and  _277
REMARK   99  A    between atoms: _280  and  _282
REMARK  100  A    between atoms: _282  and  _283
REMARK  101  A    between atoms: _282  and  _285
REMARK  102  A    between atoms: _285  and  _286
REMARK  103  A    between atoms: _292  and  _294
REMARK  104  A    between atoms: _294  and  _295
REMARK  105  A    between atoms: _297  and  _299
REMARK  106  A    between atoms: _299  and  _300
REMARK  107  A    between atoms: _299  and  _302
REMARK  108  A    between atoms: _302  and  _303
REMARK  109  A    between atoms: _309  and  _311
REMARK  110  A    between atoms: _311  and  _312
REMARK  111  A    between atoms: _311  and  _314
REMARK  112  A    between atoms: _314  and  _315
REMARK  113  A    between atoms: _315  and  _316
REMARK  114  A    between atoms: _321  and  _323
REMARK  115  A    between atoms: _323  and  _324
REMARK  116  A    between atoms: _323  and  _326
REMARK  117  A    between atoms: _326  and  _327
REMARK  118  A    between atoms: _329  and  _331
REMARK  119  A    between atoms: _331  and  _332
REMARK  120  A    between atoms: _331  and  _334
REMARK  121  A    between atoms: _334  and  _335
REMARK  122  A    between atoms: _338  and  _340
REMARK  123  A    between atoms: _340  and  _341
REMARK  124  A    between atoms: _340  and  _343
REMARK  125  A    between atoms: _343  and  _344
REMARK  126  A    between atoms: _354  and  _356
REMARK  127  A    between atoms: _356  and  _357
REMARK  128  A    between atoms: _356  and  _359
REMARK  129  A    between atoms: _359  and  _360
REMARK  130  A    between atoms: _360  and  _361
REMARK  131  A    between atoms: _366  and  _368
REMARK  132  A    between atoms: _368  and  _369
REMARK  133  A    between atoms: _368  and  _371
REMARK  134  A    between atoms: _371  and  _372
REMARK                            x       y       z     vdW  Elec       q    Type
REMARK                         _______ _______ _______ _____ _____    ______ ____
ROOT
ATOM      1  O   HOH     1      32.707  54.829  -0.926  0.00  0.00    +0.000 OA
ENDROOT
TORSDOF 0
REMARK  Name = ../refined-set-2016/2vl4/2vl4_pocket.pdb
REMARK  134 active torsions:
REMARK  status: ('A' for Active; 'I' for Inactive)
REMARK    1  A    between atoms: _1  and  _3
REMARK    2  A    between atoms: _3  and  _4
REMARK    3  A    between atoms: _3  and  _6
REMARK    4  A    between atoms: _6  and  _7
REMARK    5  A    between atoms: _12  and  _14
REMARK    6  A    between atoms: _14  and  _15
REMARK    7  A    between atoms: _14  and  _17
REMARK    8  A    between atoms: _17  and  _18
REMARK    9  A    between atoms: _28  and  _30
REMARK   10  A    between atoms: _30  and  _31
REMARK   11  A    between atoms: _30  and  _33
REMARK   12  A    between atoms: _33  and  _34
REMARK   13  A    between atoms: _37  and  _39
REMARK   14  A    between atoms: _39  and  _40
REMARK   15  A    between atoms: _39  and  _42
REMARK   16  A    between atoms: _42  and  _43
REMARK   17  A    between atoms: _53  and  _55
REMARK   18  A    between atoms: _55  and  _56
REMARK   19  A    between atoms: _58  and  _60
REMARK   20  A    between atoms: _60  and  _61
REMARK   21  A    between atoms: _60  and  _63
REMARK   22  A    between atoms: _63  and  _64
REMARK   23  A    between atoms: _69  and  _71
REMARK   24  A    between atoms: _71  and  _72
REMARK   25  A    between atoms: _71  and  _74
REMARK   26  A    between atoms: _74  and  _75
REMARK   27  A    between atoms: _78  and  _80
REMARK   28  A    between atoms: _80  and  _81
REMARK   29  A    between atoms: _80  and  _83
REMARK   30  A    between atoms: _83  and  _84
REMARK   31  A    between atoms: _84  and  _85
REMARK   32  A    between atoms: _85  and  _86
REMARK   33  A    between atoms: _95  and  _97
REMARK   34  A    between atoms: _97  and  _98
REMARK   35  A    between atoms: _97  and  _100
REMARK   36  A    between atoms: _100  and  _101
REMARK   37  A    between atoms: _111  and  _113
REMARK   38  A    between atoms: _113  and  _114
REMARK   39  A    between atoms: _116  and  _118
REMARK   40  A    between atoms: _118  and  _119
REMARK   41  A    between atoms: _121  and  _123
REMARK   42  A    between atoms: _123  and  _124
REMARK   43  A    between atoms: _123  and  _126
REMARK   44  A    between atoms: _126  and  _127
REMARK   45  A    between atoms: _130  and  _132
REMARK   46  A    between atoms: _132  and  _133
REMARK   47  A    between atoms: _136  and  _138
REMARK   48  A    between atoms: _138  and  _139
REMARK   49  A    between atoms: _138  and  _141
REMARK   50  A    between atoms: _143  and  _145
REMARK   51  A    between atoms: _145  and  _146
REMARK   52  A    between atoms: _145  and  _148
REMARK   53  A    between atoms: _148  and  _149
REMARK   54  A    between atoms: _154  and  _156
REMARK   55  A    between atoms: _156  and  _157
REMARK   56  A    between atoms: _156  and  _159
REMARK   57  A    between atoms: _159  and  _160
REMARK   58  A    between atoms: _160  and  _161
REMARK   59  A    between atoms: _164  and  _166
REMARK   60  A    between atoms: _166  and  _167
REMARK   61  A    between atoms: _166  and  _169
REMARK   62  A    between atoms: _169  and  _170
REMARK   63  A    between atoms: _170  and  _171
REMARK   64  A    between atoms: _174  and  _176
REMARK   65  A    between atoms: _176  and  _177
REMARK   66  A    between atoms: _176  and  _179
REMARK   67  A    between atoms: _179  and  _180
REMARK   68  A    between atoms: _190  and  _192
REMARK   69  A    between atoms: _192  and  _193
REMARK   70  A    between atoms: _192  and  _195
REMARK   71  A    between atoms: _195  and  _196
REMARK   72  A    between atoms: _199  and  _200
REMARK   73  A    between atoms: _205  and  _207
REMARK   74  A    between atoms: _207  and  _208
REMARK   75  A    between atoms: _207  and  _210
REMARK   76  A    between atoms: _210  and  _211
REMARK   77  A    between atoms: _216  and  _218
REMARK   78  A    between atoms: _218  and  _219
REMARK   79  A    between atoms: _218  and  _221
REMARK   80  A    between atoms: _221  and  _222
REMARK   81  A    between atoms: _232  and  _234
REMARK   82  A    between atoms: _234  and  _235
REMARK   83  A    between atoms: _234  and  _237
REMARK   84  A    between atoms: _237  and  _238
REMARK   85  A    between atoms: _248  and  _250
REMARK   86  A    between atoms: _250  and  _251
REMARK   87  A    between atoms: _250  and  _253
REMARK   88  A    between atoms: _253  and  _254
REMARK   89  A    between atoms: _259  and  _260
REMARK   90  A    between atoms: _262  and  _264
REMARK   91  A    between atoms: _264  and  _265
REMARK   92  A    between atoms: _264  and  _267
REMARK   93  A    between atoms: _267  and  _268
REMARK   94  A    between atoms: _270  and  _272
REMARK   95  A    between atoms: _272  and  _273
REMARK   96  A    between atoms: _272  and  _275
REMARK   97  A    between atoms: _275  and  _276
REMARK   98  A    between atoms: _276  and  _277
REMARK   99  A    between atoms: _280  and  _282
REMARK  100  A    between atoms: _282  and  _283
REMARK  101  A    between atoms: _282  and  _285
REMARK  102  A    between atoms: _285  and  _286
REMARK  103  A    between atoms: _292  and  _294
REMARK  104  A    between atoms: _294  and  _295
REMARK  105  A    between atoms: _297  and  _299
REMARK  106  A    between atoms: _299  and  _300
REMARK  107  A    between atoms: _299  and  _302
REMARK  108  A    between atoms: _302  and  _303
REMARK  109  A    between atoms: _309  and  _311
REMARK  110  A    between atoms: _311  and  _312
REMARK  111  A    between atoms: _311  and  _314
REMARK  112  A    between atoms: _314  and  _315
REMARK  113  A    between atoms: _315  and  _316
REMARK  114  A    between atoms: _321  and  _323
REMARK  115  A    between atoms: _323  and  _324
REMARK  116  A    between atoms: _323  and  _326
REMARK  117  A    between atoms: _326  and  _327
REMARK  118  A    between atoms: _329  and  _331
REMARK  119  A    between atoms: _331  and  _332
REMARK  120  A    between atoms: _331  and  _334
REMARK  121  A    between atoms: _334  and  _335
REMARK  122  A    between atoms: _338  and  _340
REMARK  123  A    between atoms: _340  and  _341
REMARK  124  A    between atoms: _340  and  _343
REMARK  125  A    between atoms: _343  and  _344
REMARK  126  A    between atoms: _354  and  _356
REMARK  127  A    between atoms: _356  and  _357
REMARK  128  A    between atoms: _356  and  _359
REMARK  129  A    between atoms: _359  and  _360
REMARK  130  A    between atoms: _360  and  _361
REMARK  131  A    between atoms: _366  and  _368
REMARK  132  A    between atoms: _368  and  _369
REMARK  133  A    between atoms: _368  and  _371
REMARK  134  A    between atoms: _371  and  _372
REMARK                            x       y       z     vdW  Elec       q    Type
REMARK                         _______ _______ _______ _____ _____    ______ ____
ROOT
ATOM      1  O   HOH     1      30.532  52.228  -4.749  0.00  0.00    +0.000 OA
ENDROOT
TORSDOF 0
REMARK  Name = ../refined-set-2016/2vl4/2vl4_pocket.pdb
REMARK  134 active torsions:
REMARK  status: ('A' for Active; 'I' for Inactive)
REMARK    1  A    between atoms: _1  and  _3
REMARK    2  A    between atoms: _3  and  _4
REMARK    3  A    between atoms: _3  and  _6
REMARK    4  A    between atoms: _6  and  _7
REMARK    5  A    between atoms: _12  and  _14
REMARK    6  A    between atoms: _14  and  _15
REMARK    7  A    between atoms: _14  and  _17
REMARK    8  A    between atoms: _17  and  _18
REMARK    9  A    between atoms: _28  and  _30
REMARK   10  A    between atoms: _30  and  _31
REMARK   11  A    between atoms: _30  and  _33
REMARK   12  A    between atoms: _33  and  _34
REMARK   13  A    between atoms: _37  and  _39
REMARK   14  A    between atoms: _39  and  _40
REMARK   15  A    between atoms: _39  and  _42
REMARK   16  A    between atoms: _42  and  _43
REMARK   17  A    between atoms: _53  and  _55
REMARK   18  A    between atoms: _55  and  _56
REMARK   19  A    between atoms: _58  and  _60
REMARK   20  A    between atoms: _60  and  _61
REMARK   21  A    between atoms: _60  and  _63
REMARK   22  A    between atoms: _63  and  _64
REMARK   23  A    between atoms: _69  and  _71
REMARK   24  A    between atoms: _71  and  _72
REMARK   25  A    between atoms: _71  and  _74
REMARK   26  A    between atoms: _74  and  _75
REMARK   27  A    between atoms: _78  and  _80
REMARK   28  A    between atoms: _80  and  _81
REMARK   29  A    between atoms: _80  and  _83
REMARK   30  A    between atoms: _83  and  _84
REMARK   31  A    between atoms: _84  and  _85
REMARK   32  A    between atoms: _85  and  _86
REMARK   33  A    between atoms: _95  and  _97
REMARK   34  A    between atoms: _97  and  _98
REMARK   35  A    between atoms: _97  and  _100
REMARK   36  A    between atoms: _100  and  _101
REMARK   37  A    between atoms: _111  and  _113
REMARK   38  A    between atoms: _113  and  _114
REMARK   39  A    between atoms: _116  and  _118
REMARK   40  A    between atoms: _118  and  _119
REMARK   41  A    between atoms: _121  and  _123
REMARK   42  A    between atoms: _123  and  _124
REMARK   43  A    between atoms: _123  and  _126
REMARK   44  A    between atoms: _126  and  _127
REMARK   45  A    between atoms: _130  and  _132
REMARK   46  A    between atoms: _132  and  _133
REMARK   47  A    between atoms: _136  and  _138
REMARK   48  A    between atoms: _138  and  _139
REMARK   49  A    between atoms: _138  and  _141
REMARK   50  A    between atoms: _143  and  _145
REMARK   51  A    between atoms: _145  and  _146
REMARK   52  A    between atoms: _145  and  _148
REMARK   53  A    between atoms: _148  and  _149
REMARK   54  A    between atoms: _154  and  _156
REMARK   55  A    between atoms: _156  and  _157
REMARK   56  A    between atoms: _156  and  _159
REMARK   57  A    between atoms: _159  and  _160
REMARK   58  A    between atoms: _160  and  _161
REMARK   59  A    between atoms: _164  and  _166
REMARK   60  A    between atoms: _166  and  _167
REMARK   61  A    between atoms: _166  and  _169
REMARK   62  A    between atoms: _169  and  _170
REMARK   63  A    between atoms: _170  and  _171
REMARK   64  A    between atoms: _174  and  _176
REMARK   65  A    between atoms: _176  and  _177
REMARK   66  A    between atoms: _176  and  _179
REMARK   67  A    between atoms: _179  and  _180
REMARK   68  A    between atoms: _190  and  _192
REMARK   69  A    between atoms: _192  and  _193
REMARK   70  A    between atoms: _192  and  _195
REMARK   71  A    between atoms: _195  and  _196
REMARK   72  A    between atoms: _199  and  _200
REMARK   73  A    between atoms: _205  and  _207
REMARK   74  A    between atoms: _207  and  _208
REMARK   75  A    between atoms: _207  and  _210
REMARK   76  A    between atoms: _210  and  _211
REMARK   77  A    between atoms: _216  and  _218
REMARK   78  A    between atoms: _218  and  _219
REMARK   79  A    between atoms: _218  and  _221
REMARK   80  A    between atoms: _221  and  _222
REMARK   81  A    between atoms: _232  and  _234
REMARK   82  A    between atoms: _234  and  _235
REMARK   83  A    between atoms: _234  and  _237
REMARK   84  A    between atoms: _237  and  _238
REMARK   85  A    between atoms: _248  and  _250
REMARK   86  A    between atoms: _250  and  _251
REMARK   87  A    between atoms: _250  and  _253
REMARK   88  A    between atoms: _253  and  _254
REMARK   89  A    between atoms: _259  and  _260
REMARK   90  A    between atoms: _262  and  _264
REMARK   91  A    between atoms: _264  and  _265
REMARK   92  A    between atoms: _264  and  _267
REMARK   93  A    between atoms: _267  and  _268
REMARK   94  A    between atoms: _270  and  _272
REMARK   95  A    between atoms: _272  and  _273
REMARK   96  A    between atoms: _272  and  _275
REMARK   97  A    between atoms: _275  and  _276
REMARK   98  A    between atoms: _276  and  _277
REMARK   99  A    between atoms: _280  and  _282
REMARK  100  A    between atoms: _282  and  _283
REMARK  101  A    between atoms: _282  and  _285
REMARK  102  A    between atoms: _285  and  _286
REMARK  103  A    between atoms: _292  and  _294
REMARK  104  A    between atoms: _294  and  _295
REMARK  105  A    between atoms: _297  and  _299
REMARK  106  A    between atoms: _299  and  _300
REMARK  107  A    between atoms: _299  and  _302
REMARK  108  A    between atoms: _302  and  _303
REMARK  109  A    between atoms: _309  and  _311
REMARK  110  A    between atoms: _311  and  _312
REMARK  111  A    between atoms: _311  and  _314
REMARK  112  A    between atoms: _314  and  _315
REMARK  113  A    between atoms: _315  and  _316
REMARK  114  A    between atoms: _321  and  _323
REMARK  115  A    between atoms: _323  and  _324
REMARK  116  A    between atoms: _323  and  _326
REMARK  117  A    between atoms: _326  and  _327
REMARK  118  A    between atoms: _329  and  _331
REMARK  119  A    between atoms: _331  and  _332
REMARK  120  A    between atoms: _331  and  _334
REMARK  121  A    between atoms: _334  and  _335
REMARK  122  A    between atoms: _338  and  _340
REMARK  123  A    between atoms: _340  and  _341
REMARK  124  A    between atoms: _340  and  _343
REMARK  125  A    between atoms: _343  and  _344
REMARK  126  A    between atoms: _354  and  _356
REMARK  127  A    between atoms: _356  and  _357
REMARK  128  A    between atoms: _356  and  _359
REMARK  129  A    between atoms: _359  and  _360
REMARK  130  A    between atoms: _360  and  _361
REMARK  131  A    between atoms: _366  and  _368
REMARK  132  A    between atoms: _368  and  _369
REMARK  133  A    between atoms: _368  and  _371
REMARK  134  A    between atoms: _371  and  _372
REMARK                            x       y       z     vdW  Elec       q    Type
REMARK                         _______ _______ _______ _____ _____    ______ ____
ROOT
ATOM      1  O   HOH     1      30.990  53.191  -8.871  0.00  0.00    +0.000 OA
ENDROOT
TORSDOF 0
REMARK  Name = ../refined-set-2016/2vl4/2vl4_pocket.pdb
REMARK  134 active torsions:
REMARK  status: ('A' for Active; 'I' for Inactive)
REMARK    1  A    between atoms: _1  and  _3
REMARK    2  A    between atoms: _3  and  _4
REMARK    3  A    between atoms: _3  and  _6
REMARK    4  A    between atoms: _6  and  _7
REMARK    5  A    between atoms: _12  and  _14
REMARK    6  A    between atoms: _14  and  _15
REMARK    7  A    between atoms: _14  and  _17
REMARK    8  A    between atoms: _17  and  _18
REMARK    9  A    between atoms: _28  and  _30
REMARK   10  A    between atoms: _30  and  _31
REMARK   11  A    between atoms: _30  and  _33
REMARK   12  A    between atoms: _33  and  _34
REMARK   13  A    between atoms: _37  and  _39
REMARK   14  A    between atoms: _39  and  _40
REMARK   15  A    between atoms: _39  and  _42
REMARK   16  A    between atoms: _42  and  _43
REMARK   17  A    between atoms: _53  and  _55
REMARK   18  A    between atoms: _55  and  _56
REMARK   19  A    between atoms: _58  and  _60
REMARK   20  A    between atoms: _60  and  _61
REMARK   21  A    between atoms: _60  and  _63
REMARK   22  A    between atoms: _63  and  _64
REMARK   23  A    between atoms: _69  and  _71
REMARK   24  A    between atoms: _71  and  _72
REMARK   25  A    between atoms: _71  and  _74
REMARK   26  A    between atoms: _74  and  _75
REMARK   27  A    between atoms: _78  and  _80
REMARK   28  A    between atoms: _80  and  _81
REMARK   29  A    between atoms: _80  and  _83
REMARK   30  A    between atoms: _83  and  _84
REMARK   31  A    between atoms: _84  and  _85
REMARK   32  A    between atoms: _85  and  _86
REMARK   33  A    between atoms: _95  and  _97
REMARK   34  A    between atoms: _97  and  _98
REMARK   35  A    between atoms: _97  and  _100
REMARK   36  A    between atoms: _100  and  _101
REMARK   37  A    between atoms: _111  and  _113
REMARK   38  A    between atoms: _113  and  _114
REMARK   39  A    between atoms: _116  and  _118
REMARK   40  A    between atoms: _118  and  _119
REMARK   41  A    between atoms: _121  and  _123
REMARK   42  A    between atoms: _123  and  _124
REMARK   43  A    between atoms: _123  and  _126
REMARK   44  A    between atoms: _126  and  _127
REMARK   45  A    between atoms: _130  and  _132
REMARK   46  A    between atoms: _132  and  _133
REMARK   47  A    between atoms: _136  and  _138
REMARK   48  A    between atoms: _138  and  _139
REMARK   49  A    between atoms: _138  and  _141
REMARK   50  A    between atoms: _143  and  _145
REMARK   51  A    between atoms: _145  and  _146
REMARK   52  A    between atoms: _145  and  _148
REMARK   53  A    between atoms: _148  and  _149
REMARK   54  A    between atoms: _154  and  _156
REMARK   55  A    between atoms: _156  and  _157
REMARK   56  A    between atoms: _156  and  _159
REMARK   57  A    between atoms: _159  and  _160
REMARK   58  A    between atoms: _160  and  _161
REMARK   59  A    between atoms: _164  and  _166
REMARK   60  A    between atoms: _166  and  _167
REMARK   61  A    between atoms: _166  and  _169
REMARK   62  A    between atoms: _169  and  _170
REMARK   63  A    between atoms: _170  and  _171
REMARK   64  A    between atoms: _174  and  _176
REMARK   65  A    between atoms: _176  and  _177
REMARK   66  A    between atoms: _176  and  _179
REMARK   67  A    between atoms: _179  and  _180
REMARK   68  A    between atoms: _190  and  _192
REMARK   69  A    between atoms: _192  and  _193
REMARK   70  A    between atoms: _192  and  _195
REMARK   71  A    between atoms: _195  and  _196
REMARK   72  A    between atoms: _199  and  _200
REMARK   73  A    between atoms: _205  and  _207
REMARK   74  A    between atoms: _207  and  _208
REMARK   75  A    between atoms: _207  and  _210
REMARK   76  A    between atoms: _210  and  _211
REMARK   77  A    between atoms: _216  and  _218
REMARK   78  A    between atoms: _218  and  _219
REMARK   79  A    between atoms: _218  and  _221
REMARK   80  A    between atoms: _221  and  _222
REMARK   81  A    between atoms: _232  and  _234
REMARK   82  A    between atoms: _234  and  _235
REMARK   83  A    between atoms: _234  and  _237
REMARK   84  A    between atoms: _237  and  _238
REMARK   85  A    between atoms: _248  and  _250
REMARK   86  A    between atoms: _250  and  _251
REMARK   87  A    between atoms: _250  and  _253
REMARK   88  A    between atoms: _253  and  _254
REMARK   89  A    between atoms: _259  and  _260
REMARK   90  A    between atoms: _262  and  _264
REMARK   91  A    between atoms: _264  and  _265
REMARK   92  A    between atoms: _264  and  _267
REMARK   93  A    between atoms: _267  and  _268
REMARK   94  A    between atoms: _270  and  _272
REMARK   95  A    between atoms: _272  and  _273
REMARK   96  A    between atoms: _272  and  _275
REMARK   97  A    between atoms: _275  and  _276
REMARK   98  A    between atoms: _276  and  _277
REMARK   99  A    between atoms: _280  and  _282
REMARK  100  A    between atoms: _282  and  _283
REMARK  101  A    between atoms: _282  and  _285
REMARK  102  A    between atoms: _285  and  _286
REMARK  103  A    between atoms: _292  and  _294
REMARK  104  A    between atoms: _294  and  _295
REMARK  105  A    between atoms: _297  and  _299
REMARK  106  A    between atoms: _299  and  _300
REMARK  107  A    between atoms: _299  and  _302
REMARK  108  A    between atoms: _302  and  _303
REMARK  109  A    between atoms: _309  and  _311
REMARK  110  A    between atoms: _311  and  _312
REMARK  111  A    between atoms: _311  and  _314
REMARK  112  A    between atoms: _314  and  _315
REMARK  113  A    between atoms: _315  and  _316
REMARK  114  A    between atoms: _321  and  _323
REMARK  115  A    between atoms: _323  and  _324
REMARK  116  A    between atoms: _323  and  _326
REMARK  117  A    between atoms: _326  and  _327
REMARK  118  A    between atoms: _329  and  _331
REMARK  119  A    between atoms: _331  and  _332
REMARK  120  A    between atoms: _331  and  _334
REMARK  121  A    between atoms: _334  and  _335
REMARK  122  A    between atoms: _338  and  _340
REMARK  123  A    between atoms: _340  and  _341
REMARK  124  A    between atoms: _340  and  _343
REMARK  125  A    between atoms: _343  and  _344
REMARK  126  A    between atoms: _354  and  _356
REMARK  127  A    between atoms: _356  and  _357
REMARK  128  A    between atoms: _356  and  _359
REMARK  129  A    between atoms: _359  and  _360
REMARK  130  A    between atoms: _360  and  _361
REMARK  131  A    between atoms: _366  and  _368
REMARK  132  A    between atoms: _368  and  _369
REMARK  133  A    between atoms: _368  and  _371
REMARK  134  A    between atoms: _371  and  _372
REMARK                            x       y       z     vdW  Elec       q    Type
REMARK                         _______ _______ _______ _____ _____    ______ ____
ROOT
ATOM      1  O   HOH     1      36.858  48.256   2.772  0.00  0.00    +0.000 OA
ENDROOT
TORSDOF 0
REMARK  Name = ../refined-set-2016/2vl4/2vl4_pocket.pdb
REMARK  134 active torsions:
REMARK  status: ('A' for Active; 'I' for Inactive)
REMARK    1  A    between atoms: _1  and  _3
REMARK    2  A    between atoms: _3  and  _4
REMARK    3  A    between atoms: _3  and  _6
REMARK    4  A    between atoms: _6  and  _7
REMARK    5  A    between atoms: _12  and  _14
REMARK    6  A    between atoms: _14  and  _15
REMARK    7  A    between atoms: _14  and  _17
REMARK    8  A    between atoms: _17  and  _18
REMARK    9  A    between atoms: _28  and  _30
REMARK   10  A    between atoms: _30  and  _31
REMARK   11  A    between atoms: _30  and  _33
REMARK   12  A    between atoms: _33  and  _34
REMARK   13  A    between atoms: _37  and  _39
REMARK   14  A    between atoms: _39  and  _40
REMARK   15  A    between atoms: _39  and  _42
REMARK   16  A    between atoms: _42  and  _43
REMARK   17  A    between atoms: _53  and  _55
REMARK   18  A    between atoms: _55  and  _56
REMARK   19  A    between atoms: _58  and  _60
REMARK   20  A    between atoms: _60  and  _61
REMARK   21  A    between atoms: _60  and  _63
REMARK   22  A    between atoms: _63  and  _64
REMARK   23  A    between atoms: _69  and  _71
REMARK   24  A    between atoms: _71  and  _72
REMARK   25  A    between atoms: _71  and  _74
REMARK   26  A    between atoms: _74  and  _75
REMARK   27  A    between atoms: _78  and  _80
REMARK   28  A    between atoms: _80  and  _81
REMARK   29  A    between atoms: _80  and  _83
REMARK   30  A    between atoms: _83  and  _84
REMARK   31  A    between atoms: _84  and  _85
REMARK   32  A    between atoms: _85  and  _86
REMARK   33  A    between atoms: _95  and  _97
REMARK   34  A    between atoms: _97  and  _98
REMARK   35  A    between atoms: _97  and  _100
REMARK   36  A    between atoms: _100  and  _101
REMARK   37  A    between atoms: _111  and  _113
REMARK   38  A    between atoms: _113  and  _114
REMARK   39  A    between atoms: _116  and  _118
REMARK   40  A    between atoms: _118  and  _119
REMARK   41  A    between atoms: _121  and  _123
REMARK   42  A    between atoms: _123  and  _124
REMARK   43  A    between atoms: _123  and  _126
REMARK   44  A    between atoms: _126  and  _127
REMARK   45  A    between atoms: _130  and  _132
REMARK   46  A    between atoms: _132  and  _133
REMARK   47  A    between atoms: _136  and  _138
REMARK   48  A    between atoms: _138  and  _139
REMARK   49  A    between atoms: _138  and  _141
REMARK   50  A    between atoms: _143  and  _145
REMARK   51  A    between atoms: _145  and  _146
REMARK   52  A    between atoms: _145  and  _148
REMARK   53  A    between atoms: _148  and  _149
REMARK   54  A    between atoms: _154  and  _156
REMARK   55  A    between atoms: _156  and  _157
REMARK   56  A    between atoms: _156  and  _159
REMARK   57  A    between atoms: _159  and  _160
REMARK   58  A    between atoms: _160  and  _161
REMARK   59  A    between atoms: _164  and  _166
REMARK   60  A    between atoms: _166  and  _167
REMARK   61  A    between atoms: _166  and  _169
REMARK   62  A    between atoms: _169  and  _170
REMARK   63  A    between atoms: _170  and  _171
REMARK   64  A    between atoms: _174  and  _176
REMARK   65  A    between atoms: _176  and  _177
REMARK   66  A    between atoms: _176  and  _179
REMARK   67  A    between atoms: _179  and  _180
REMARK   68  A    between atoms: _190  and  _192
REMARK   69  A    between atoms: _192  and  _193
REMARK   70  A    between atoms: _192  and  _195
REMARK   71  A    between atoms: _195  and  _196
REMARK   72  A    between atoms: _199  and  _200
REMARK   73  A    between atoms: _205  and  _207
REMARK   74  A    between atoms: _207  and  _208
REMARK   75  A    between atoms: _207  and  _210
REMARK   76  A    between atoms: _210  and  _211
REMARK   77  A    between atoms: _216  and  _218
REMARK   78  A    between atoms: _218  and  _219
REMARK   79  A    between atoms: _218  and  _221
REMARK   80  A    between atoms: _221  and  _222
REMARK   81  A    between atoms: _232  and  _234
REMARK   82  A    between atoms: _234  and  _235
REMARK   83  A    between atoms: _234  and  _237
REMARK   84  A    between atoms: _237  and  _238
REMARK   85  A    between atoms: _248  and  _250
REMARK   86  A    between atoms: _250  and  _251
REMARK   87  A    between atoms: _250  and  _253
REMARK   88  A    between atoms: _253  and  _254
REMARK   89  A    between atoms: _259  and  _260
REMARK   90  A    between atoms: _262  and  _264
REMARK   91  A    between atoms: _264  and  _265
REMARK   92  A    between atoms: _264  and  _267
REMARK   93  A    between atoms: _267  and  _268
REMARK   94  A    between atoms: _270  and  _272
REMARK   95  A    between atoms: _272  and  _273
REMARK   96  A    between atoms: _272  and  _275
REMARK   97  A    between atoms: _275  and  _276
REMARK   98  A    between atoms: _276  and  _277
REMARK   99  A    between atoms: _280  and  _282
REMARK  100  A    between atoms: _282  and  _283
REMARK  101  A    between atoms: _282  and  _285
REMARK  102  A    between atoms: _285  and  _286
REMARK  103  A    between atoms: _292  and  _294
REMARK  104  A    between atoms: _294  and  _295
REMARK  105  A    between atoms: _297  and  _299
REMARK  106  A    between atoms: _299  and  _300
REMARK  107  A    between atoms: _299  and  _302
REMARK  108  A    between atoms: _302  and  _303
REMARK  109  A    between atoms: _309  and  _311
REMARK  110  A    between atoms: _311  and  _312
REMARK  111  A    between atoms: _311  and  _314
REMARK  112  A    between atoms: _314  and  _315
REMARK  113  A    between atoms: _315  and  _316
REMARK  114  A    between atoms: _321  and  _323
REMARK  115  A    between atoms: _323  and  _324
REMARK  116  A    between atoms: _323  and  _326
REMARK  117  A    between atoms: _326  and  _327
REMARK  118  A    between atoms: _329  and  _331
REMARK  119  A    between atoms: _331  and  _332
REMARK  120  A    between atoms: _331  and  _334
REMARK  121  A    between atoms: _334  and  _335
REMARK  122  A    between atoms: _338  and  _340
REMARK  123  A    between atoms: _340  and  _341
REMARK  124  A    between atoms: _340  and  _343
REMARK  125  A    between atoms: _343  and  _344
REMARK  126  A    between atoms: _354  and  _356
REMARK  127  A    between atoms: _356  and  _357
REMARK  128  A    between atoms: _356  and  _359
REMARK  129  A    between atoms: _359  and  _360
REMARK  130  A    between atoms: _360  and  _361
REMARK  131  A    between atoms: _366  and  _368
REMARK  132  A    between atoms: _368  and  _369
REMARK  133  A    between atoms: _368  and  _371
REMARK  134  A    between atoms: _371  and  _372
REMARK                            x       y       z     vdW  Elec       q    Type
REMARK                         _______ _______ _______ _____ _____    ______ ____
ROOT
ATOM      1  O   HOH     1      27.161  53.777  -6.467  0.00  0.00    +0.000 OA
ENDROOT
TORSDOF 0
REMARK  Name = ../refined-set-2016/2vl4/2vl4_pocket.pdb
REMARK  134 active torsions:
REMARK  status: ('A' for Active; 'I' for Inactive)
REMARK    1  A    between atoms: _1  and  _3
REMARK    2  A    between atoms: _3  and  _4
REMARK    3  A    between atoms: _3  and  _6
REMARK    4  A    between atoms: _6  and  _7
REMARK    5  A    between atoms: _12  and  _14
REMARK    6  A    between atoms: _14  and  _15
REMARK    7  A    between atoms: _14  and  _17
REMARK    8  A    between atoms: _17  and  _18
REMARK    9  A    between atoms: _28  and  _30
REMARK   10  A    between atoms: _30  and  _31
REMARK   11  A    between atoms: _30  and  _33
REMARK   12  A    between atoms: _33  and  _34
REMARK   13  A    between atoms: _37  and  _39
REMARK   14  A    between atoms: _39  and  _40
REMARK   15  A    between atoms: _39  and  _42
REMARK   16  A    between atoms: _42  and  _43
REMARK   17  A    between atoms: _53  and  _55
REMARK   18  A    between atoms: _55  and  _56
REMARK   19  A    between atoms: _58  and  _60
REMARK   20  A    between atoms: _60  and  _61
REMARK   21  A    between atoms: _60  and  _63
REMARK   22  A    between atoms: _63  and  _64
REMARK   23  A    between atoms: _69  and  _71
REMARK   24  A    between atoms: _71  and  _72
REMARK   25  A    between atoms: _71  and  _74
REMARK   26  A    between atoms: _74  and  _75
REMARK   27  A    between atoms: _78  and  _80
REMARK   28  A    between atoms: _80  and  _81
REMARK   29  A    between atoms: _80  and  _83
REMARK   30  A    between atoms: _83  and  _84
REMARK   31  A    between atoms: _84  and  _85
REMARK   32  A    between atoms: _85  and  _86
REMARK   33  A    between atoms: _95  and  _97
REMARK   34  A    between atoms: _97  and  _98
REMARK   35  A    between atoms: _97  and  _100
REMARK   36  A    between atoms: _100  and  _101
REMARK   37  A    between atoms: _111  and  _113
REMARK   38  A    between atoms: _113  and  _114
REMARK   39  A    between atoms: _116  and  _118
REMARK   40  A    between atoms: _118  and  _119
REMARK   41  A    between atoms: _121  and  _123
REMARK   42  A    between atoms: _123  and  _124
REMARK   43  A    between atoms: _123  and  _126
REMARK   44  A    between atoms: _126  and  _127
REMARK   45  A    between atoms: _130  and  _132
REMARK   46  A    between atoms: _132  and  _133
REMARK   47  A    between atoms: _136  and  _138
REMARK   48  A    between atoms: _138  and  _139
REMARK   49  A    between atoms: _138  and  _141
REMARK   50  A    between atoms: _143  and  _145
REMARK   51  A    between atoms: _145  and  _146
REMARK   52  A    between atoms: _145  and  _148
REMARK   53  A    between atoms: _148  and  _149
REMARK   54  A    between atoms: _154  and  _156
REMARK   55  A    between atoms: _156  and  _157
REMARK   56  A    between atoms: _156  and  _159
REMARK   57  A    between atoms: _159  and  _160
REMARK   58  A    between atoms: _160  and  _161
REMARK   59  A    between atoms: _164  and  _166
REMARK   60  A    between atoms: _166  and  _167
REMARK   61  A    between atoms: _166  and  _169
REMARK   62  A    between atoms: _169  and  _170
REMARK   63  A    between atoms: _170  and  _171
REMARK   64  A    between atoms: _174  and  _176
REMARK   65  A    between atoms: _176  and  _177
REMARK   66  A    between atoms: _176  and  _179
REMARK   67  A    between atoms: _179  and  _180
REMARK   68  A    between atoms: _190  and  _192
REMARK   69  A    between atoms: _192  and  _193
REMARK   70  A    between atoms: _192  and  _195
REMARK   71  A    between atoms: _195  and  _196
REMARK   72  A    between atoms: _199  and  _200
REMARK   73  A    between atoms: _205  and  _207
REMARK   74  A    between atoms: _207  and  _208
REMARK   75  A    between atoms: _207  and  _210
REMARK   76  A    between atoms: _210  and  _211
REMARK   77  A    between atoms: _216  and  _218
REMARK   78  A    between atoms: _218  and  _219
REMARK   79  A    between atoms: _218  and  _221
REMARK   80  A    between atoms: _221  and  _222
REMARK   81  A    between atoms: _232  and  _234
REMARK   82  A    between atoms: _234  and  _235
REMARK   83  A    between atoms: _234  and  _237
REMARK   84  A    between atoms: _237  and  _238
REMARK   85  A    between atoms: _248  and  _250
REMARK   86  A    between atoms: _250  and  _251
REMARK   87  A    between atoms: _250  and  _253
REMARK   88  A    between atoms: _253  and  _254
REMARK   89  A    between atoms: _259  and  _260
REMARK   90  A    between atoms: _262  and  _264
REMARK   91  A    between atoms: _264  and  _265
REMARK   92  A    between atoms: _264  and  _267
REMARK   93  A    between atoms: _267  and  _268
REMARK   94  A    between atoms: _270  and  _272
REMARK   95  A    between atoms: _272  and  _273
REMARK   96  A    between atoms: _272  and  _275
REMARK   97  A    between atoms: _275  and  _276
REMARK   98  A    between atoms: _276  and  _277
REMARK   99  A    between atoms: _280  and  _282
REMARK  100  A    between atoms: _282  and  _283
REMARK  101  A    between atoms: _282  and  _285
REMARK  102  A    between atoms: _285  and  _286
REMARK  103  A    between atoms: _292  and  _294
REMARK  104  A    between atoms: _294  and  _295
REMARK  105  A    between atoms: _297  and  _299
REMARK  106  A    between atoms: _299  and  _300
REMARK  107  A    between atoms: _299  and  _302
REMARK  108  A    between atoms: _302  and  _303
REMARK  109  A    between atoms: _309  and  _311
REMARK  110  A    between atoms: _311  and  _312
REMARK  111  A    between atoms: _311  and  _314
REMARK  112  A    between atoms: _314  and  _315
REMARK  113  A    between atoms: _315  and  _316
REMARK  114  A    between atoms: _321  and  _323
REMARK  115  A    between atoms: _323  and  _324
REMARK  116  A    between atoms: _323  and  _326
REMARK  117  A    between atoms: _326  and  _327
REMARK  118  A    between atoms: _329  and  _331
REMARK  119  A    between atoms: _331  and  _332
REMARK  120  A    between atoms: _331  and  _334
REMARK  121  A    between atoms: _334  and  _335
REMARK  122  A    between atoms: _338  and  _340
REMARK  123  A    between atoms: _340  and  _341
REMARK  124  A    between atoms: _340  and  _343
REMARK  125  A    between atoms: _343  and  _344
REMARK  126  A    between atoms: _354  and  _356
REMARK  127  A    between atoms: _356  and  _357
REMARK  128  A    between atoms: _356  and  _359
REMARK  129  A    between atoms: _359  and  _360
REMARK  130  A    between atoms: _360  and  _361
REMARK  131  A    between atoms: _366  and  _368
REMARK  132  A    between atoms: _368  and  _369
REMARK  133  A    between atoms: _368  and  _371
REMARK  134  A    between atoms: _371  and  _372
REMARK                            x       y       z     vdW  Elec       q    Type
REMARK                         _______ _______ _______ _____ _____    ______ ____
ROOT
ATOM      1  O   HOH     1      29.813  54.794  -6.863  0.00  0.00    +0.000 OA
ENDROOT
TORSDOF 0
REMARK  Name = ../refined-set-2016/2vl4/2vl4_pocket.pdb
REMARK  134 active torsions:
REMARK  status: ('A' for Active; 'I' for Inactive)
REMARK    1  A    between atoms: _1  and  _3
REMARK    2  A    between atoms: _3  and  _4
REMARK    3  A    between atoms: _3  and  _6
REMARK    4  A    between atoms: _6  and  _7
REMARK    5  A    between atoms: _12  and  _14
REMARK    6  A    between atoms: _14  and  _15
REMARK    7  A    between atoms: _14  and  _17
REMARK    8  A    between atoms: _17  and  _18
REMARK    9  A    between atoms: _28  and  _30
REMARK   10  A    between atoms: _30  and  _31
REMARK   11  A    between atoms: _30  and  _33
REMARK   12  A    between atoms: _33  and  _34
REMARK   13  A    between atoms: _37  and  _39
REMARK   14  A    between atoms: _39  and  _40
REMARK   15  A    between atoms: _39  and  _42
REMARK   16  A    between atoms: _42  and  _43
REMARK   17  A    between atoms: _53  and  _55
REMARK   18  A    between atoms: _55  and  _56
REMARK   19  A    between atoms: _58  and  _60
REMARK   20  A    between atoms: _60  and  _61
REMARK   21  A    between atoms: _60  and  _63
REMARK   22  A    between atoms: _63  and  _64
REMARK   23  A    between atoms: _69  and  _71
REMARK   24  A    between atoms: _71  and  _72
REMARK   25  A    between atoms: _71  and  _74
REMARK   26  A    between atoms: _74  and  _75
REMARK   27  A    between atoms: _78  and  _80
REMARK   28  A    between atoms: _80  and  _81
REMARK   29  A    between atoms: _80  and  _83
REMARK   30  A    between atoms: _83  and  _84
REMARK   31  A    between atoms: _84  and  _85
REMARK   32  A    between atoms: _85  and  _86
REMARK   33  A    between atoms: _95  and  _97
REMARK   34  A    between atoms: _97  and  _98
REMARK   35  A    between atoms: _97  and  _100
REMARK   36  A    between atoms: _100  and  _101
REMARK   37  A    between atoms: _111  and  _113
REMARK   38  A    between atoms: _113  and  _114
REMARK   39  A    between atoms: _116  and  _118
REMARK   40  A    between atoms: _118  and  _119
REMARK   41  A    between atoms: _121  and  _123
REMARK   42  A    between atoms: _123  and  _124
REMARK   43  A    between atoms: _123  and  _126
REMARK   44  A    between atoms: _126  and  _127
REMARK   45  A    between atoms: _130  and  _132
REMARK   46  A    between atoms: _132  and  _133
REMARK   47  A    between atoms: _136  and  _138
REMARK   48  A    between atoms: _138  and  _139
REMARK   49  A    between atoms: _138  and  _141
REMARK   50  A    between atoms: _143  and  _145
REMARK   51  A    between atoms: _145  and  _146
REMARK   52  A    between atoms: _145  and  _148
REMARK   53  A    between atoms: _148  and  _149
REMARK   54  A    between atoms: _154  and  _156
REMARK   55  A    between atoms: _156  and  _157
REMARK   56  A    between atoms: _156  and  _159
REMARK   57  A    between atoms: _159  and  _160
REMARK   58  A    between atoms: _160  and  _161
REMARK   59  A    between atoms: _164  and  _166
REMARK   60  A    between atoms: _166  and  _167
REMARK   61  A    between atoms: _166  and  _169
REMARK   62  A    between atoms: _169  and  _170
REMARK   63  A    between atoms: _170  and  _171
REMARK   64  A    between atoms: _174  and  _176
REMARK   65  A    between atoms: _176  and  _177
REMARK   66  A    between atoms: _176  and  _179
REMARK   67  A    between atoms: _179  and  _180
REMARK   68  A    between atoms: _190  and  _192
REMARK   69  A    between atoms: _192  and  _193
REMARK   70  A    between atoms: _192  and  _195
REMARK   71  A    between atoms: _195  and  _196
REMARK   72  A    between atoms: _199  and  _200
REMARK   73  A    between atoms: _205  and  _207
REMARK   74  A    between atoms: _207  and  _208
REMARK   75  A    between atoms: _207  and  _210
REMARK   76  A    between atoms: _210  and  _211
REMARK   77  A    between atoms: _216  and  _218
REMARK   78  A    between atoms: _218  and  _219
REMARK   79  A    between atoms: _218  and  _221
REMARK   80  A    between atoms: _221  and  _222
REMARK   81  A    between atoms: _232  and  _234
REMARK   82  A    between atoms: _234  and  _235
REMARK   83  A    between atoms: _234  and  _237
REMARK   84  A    between atoms: _237  and  _238
REMARK   85  A    between atoms: _248  and  _250
REMARK   86  A    between atoms: _250  and  _251
REMARK   87  A    between atoms: _250  and  _253
REMARK   88  A    between atoms: _253  and  _254
REMARK   89  A    between atoms: _259  and  _260
REMARK   90  A    between atoms: _262  and  _264
REMARK   91  A    between atoms: _264  and  _265
REMARK   92  A    between atoms: _264  and  _267
REMARK   93  A    between atoms: _267  and  _268
REMARK   94  A    between atoms: _270  and  _272
REMARK   95  A    between atoms: _272  and  _273
REMARK   96  A    between atoms: _272  and  _275
REMARK   97  A    between atoms: _275  and  _276
REMARK   98  A    between atoms: _276  and  _277
REMARK   99  A    between atoms: _280  and  _282
REMARK  100  A    between atoms: _282  and  _283
REMARK  101  A    between atoms: _282  and  _285
REMARK  102  A    between atoms: _285  and  _286
REMARK  103  A    between atoms: _292  and  _294
REMARK  104  A    between atoms: _294  and  _295
REMARK  105  A    between atoms: _297  and  _299
REMARK  106  A    between atoms: _299  and  _300
REMARK  107  A    between atoms: _299  and  _302
REMARK  108  A    between atoms: _302  and  _303
REMARK  109  A    between atoms: _309  and  _311
REMARK  110  A    between atoms: _311  and  _312
REMARK  111  A    between atoms: _311  and  _314
REMARK  112  A    between atoms: _314  and  _315
REMARK  113  A    between atoms: _315  and  _316
REMARK  114  A    between atoms: _321  and  _323
REMARK  115  A    between atoms: _323  and  _324
REMARK  116  A    between atoms: _323  and  _326
REMARK  117  A    between atoms: _326  and  _327
REMARK  118  A    between atoms: _329  and  _331
REMARK  119  A    between atoms: _331  and  _332
REMARK  120  A    between atoms: _331  and  _334
REMARK  121  A    between atoms: _334  and  _335
REMARK  122  A    between atoms: _338  and  _340
REMARK  123  A    between atoms: _340  and  _341
REMARK  124  A    between atoms: _340  and  _343
REMARK  125  A    between atoms: _343  and  _344
REMARK  126  A    between atoms: _354  and  _356
REMARK  127  A    between atoms: _356  and  _357
REMARK  128  A    between atoms: _356  and  _359
REMARK  129  A    between atoms: _359  and  _360
REMARK  130  A    between atoms: _360  and  _361
REMARK  131  A    between atoms: _366  and  _368
REMARK  132  A    between atoms: _368  and  _369
REMARK  133  A    between atoms: _368  and  _371
REMARK  134  A    between atoms: _371  and  _372
REMARK                            x       y       z     vdW  Elec       q    Type
REMARK                         _______ _______ _______ _____ _____    ______ ____
ROOT
ATOM      1  O   HOH     1      28.906  42.417  -5.514  0.00  0.00    +0.000 OA
ENDROOT
TORSDOF 0
